{\rtf1\ansi\ansicpg1252\cocoartf1671\cocoasubrtf500
{\fonttbl\f0\fswiss\fcharset0 Helvetica;}
{\colortbl;\red255\green255\blue255;}
{\*\expandedcolortbl;;}
\paperw11900\paperh16840\margl1440\margr1440\vieww10800\viewh8400\viewkind0
\pard\tx566\tx1133\tx1700\tx2267\tx2834\tx3401\tx3968\tx4535\tx5102\tx5669\tx6236\tx6803\pardirnatural\partightenfactor0

\f0\fs24 \cf0 @<TRIPOS>MOLECULE\
*****\
 ZINC242000\
SMALL\
GASTEIGER\
\
@<TRIPOS>ATOM\
      1 C           0.0000    0.0000    0.0000 C.3     1  LIG1        0.1239\
      2 N           0.0000    0.0000    0.0000 N.4     1  LIG1       -0.1314\
      3 O           0.0000    0.0000    0.0000 O.3     1  LIG1       -0.1179\
      4 C           0.0000    0.0000    0.0000 C.3     1  LIG1        0.1066\
      5 C           0.0000    0.0000    0.0000 C.3     1  LIG1        0.0510\
      6 C           0.0000    0.0000    0.0000 C.3     1  LIG1        0.1367\
      7 C           0.0000    0.0000    0.0000 C.3     1  LIG1        0.1062\
      8 N           0.0000    0.0000    0.0000 N.3     1  LIG1       -0.2226\
      9 C           0.0000    0.0000    0.0000 C.3     1  LIG1        0.0649\
     10 C           0.0000    0.0000    0.0000 C.3     1  LIG1        0.0177\
     11 C           0.0000    0.0000    0.0000 C.3     1  LIG1        0.0201\
     12 C           0.0000    0.0000    0.0000 C.3     1  LIG1        0.0905\
     13 N           0.0000    0.0000    0.0000 N.3     1  LIG1       -0.2673\
     14 C           0.0000    0.0000    0.0000 C.3     1  LIG1        0.1047\
     15 C           0.0000    0.0000    0.0000 C.3     1  LIG1        0.1595\
     16 O           0.0000    0.0000    0.0000 O.3     1  LIG1       -0.3508\
     17 C           0.0000    0.0000    0.0000 C.3     1  LIG1        0.1595\
     18 C           0.0000    0.0000    0.0000 C.3     1  LIG1        0.1047\
     19 C           0.0000    0.0000    0.0000 C.3     1  LIG1        0.1767\
     20 F           0.0000    0.0000    0.0000 F       1  LIG1       -0.2358\
     21 C           0.0000    0.0000    0.0000 C.3     1  LIG1        0.0528\
     22 C           0.0000    0.0000    0.0000 C.3     1  LIG1        0.3374\
     23 O           0.0000    0.0000    0.0000 O.3     1  LIG1       -0.1700\
     24 O           0.0000    0.0000    0.0000 O.3     1  LIG1       -0.3170\
@<TRIPOS>BOND\
     1     1     2    1\
     2     2     3    1\
     3     2     4    1\
     4     4     5    1\
     5     5     6    1\
     6     6     7    1\
     7     7     8    1\
     8     8     9    1\
     9     9    10    1\
    10    10    11    1\
    11    11    12    1\
    12    12    13    1\
    13    13    14    1\
    14    14    15    1\
    15    15    16    1\
    16    16    17    1\
    17    17    18    1\
    18    13    18    1\
    19    12    19    1\
    20    19    20    1\
    21    19    21    1\
    22     9    21    1\
    23     8    22    1\
    24    22    23    1\
    25    22    24    1\
    26     6    24    1\
}