@<TRIPOS>MOLECULE
ZINC02563881
   24    25     0     0     0
SMALL
USER_CHARGES
[2-(3-chlorophenyl)thiazol-4-yl]methanamine
@<TRIPOS>ATOM
      1 C1         -3.4918   -1.3828    0.0288 C.ar      1 <0>        -0.1047
      2 C2         -2.4414   -0.4879    0.0285 C.ar      1 <0>        -0.0604
      3 C3         -1.1278   -0.9580    0.0077 C.ar      1 <0>        -0.0287
      4 C4         -0.8846   -2.3321   -0.0020 C.ar      1 <0>        -0.0790
      5 C5         -1.9440   -3.2174    0.0033 C.ar      1 <0>        -0.0343
      6 C6         -3.2453   -2.7437    0.0187 C.ar      1 <0>        -0.0756
      7 Cl1        -1.6445   -4.9273   -0.0087 Cl        1 <0>        -0.0436
      8 C7          0.0021   -0.0041    0.0020 C.2       1 <0>         0.1804
      9 N1         -0.0159    1.3214    0.0093 N.2       1 <0>        -0.5048
     10 C8          1.0962    2.0180    0.0024 C.2       1 <0>        -0.0143
     11 C9          2.2960    1.3786   -0.0125 C.2       1 <0>        -0.1815
     12 S1          1.7604   -0.3278   -0.0165 S.3       1 <0>         0.1032
     13 C10         1.0435    3.5240    0.0105 C.3       1 <0>         0.0839
     14 H1         -4.5089   -1.0196    0.0411 H         1 <0>         0.1477
     15 H2         -2.6356    0.5744    0.0409 H         1 <0>         0.1418
     16 H3          0.1300   -2.7022   -0.0133 H         1 <0>         0.1392
     17 H4         -4.0710   -3.4398    0.0231 H         1 <0>         0.1473
     18 H5          3.2954    1.7878   -0.0203 H         1 <0>         0.2118
     19 H6          0.1953    3.8547    0.6100 H         1 <0>         0.1484
     20 H7          1.9658    3.9176    0.4378 H         1 <0>         0.1467
     21 H8          0.0782    3.6142   -1.8056 H         1 <0>         0.4401
     22 H9          0.8544    5.0242   -1.3867 H         1 <0>         0.4425
     23 N2          0.9137    4.0073   -1.3755 N.4       1 <0>        -0.6439
     24 H10         1.7373    3.7138   -1.9137 H         1 <0>         0.4378
@<TRIPOS>BOND
     1    1    6 ar
     2    1    2 ar
     3    1   14 1
     4    2    3 ar
     5    2   15 1
     6    3    4 ar
     7    3    8 1
     8    4    5 ar
     9    4   16 1
    10    5    6 ar
    11    5    7 1
    12    6   17 1
    13    8   12 1
    14    8    9 2
    15    9   10 1
    16   10   11 2
    17   10   13 1
    18   11   12 1
    19   11   18 1
    20   13   19 1
    21   13   20 1
    22   13   23 1
    23   21   23 1
    24   22   23 1
    25   23   24 1
@<TRIPOS>MOLECULE
ZINC40999755
   24    25     0     0     0
SMALL
USER_CHARGES

@<TRIPOS>ATOM
      1 C1         -0.0167    1.3767    0.0096 C.ar      1 <0>        -0.0761
      2 C2          1.1838    2.0880    0.0020 C.ar      1 <0>        -0.0118
      3 C3          2.3968    1.3986   -0.0133 C.ar      1 <0>        -0.0549
      4 C4          2.4030    0.0177   -0.0208 C.ar      1 <0>        -0.0263
      5 C5          1.2087   -0.6826   -0.0136 C.ar      1 <0>        -0.0710
      6 C6          0.0021   -0.0041    0.0020 C.ar      1 <0>        -0.0216
      7 Cl1        -1.4904   -0.8907    0.0115 Cl        1 <0>        -0.0290
      8 Cl2         3.9111   -0.8418   -0.0398 Cl        1 <0>        -0.0322
      9 C7          1.1704    3.5666    0.0095 C.2       1 <0>         0.1729
     10 N1          2.1871    4.4172   -0.0011 N.2       1 <0>        -0.5000
     11 C8          1.9902    5.7146    0.0078 C.2       1 <0>        -0.0149
     12 C9          0.7233    6.2074    0.0284 C.2       1 <0>        -0.1764
     13 S1         -0.2215    4.6888    0.0276 S.3       1 <0>         0.1151
     14 C10         3.1665    6.6566   -0.0042 C.3       1 <0>         0.0793
     15 N2          3.6439    6.8614    1.3698 N.4       1 <0>        -0.6352
     16 H1         -0.9585    1.9050    0.0259 H         1 <0>         0.1464
     17 H2          3.3290    1.9439   -0.0196 H         1 <0>         0.1527
     18 H3          1.2185   -1.7626   -0.0199 H         1 <0>         0.1580
     19 H4          0.3819    7.2320    0.0385 H         1 <0>         0.2135
     20 H5          3.9677    6.2296   -0.6074 H         1 <0>         0.1484
     21 H6          2.8618    7.6129   -0.4294 H         1 <0>         0.1496
     22 H7          3.9259    5.9762    1.7634 H         1 <0>         0.4386
     23 H8          4.4314    7.4921    1.3618 H         1 <0>         0.4412
     24 H9          2.9022    7.2566    1.9282 H         1 <0>         0.4340
@<TRIPOS>BOND
     1    1    6 ar
     2    1    2 ar
     3    1   16 1
     4    2    3 ar
     5    2    9 1
     6    3    4 ar
     7    3   17 1
     8    4    5 ar
     9    4    8 1
    10    5    6 ar
    11    5   18 1
    12    6    7 1
    13    9   13 1
    14    9   10 2
    15   10   11 1
    16   11   12 2
    17   11   14 1
    18   12   13 1
    19   12   19 1
    20   14   15 1
    21   14   20 1
    22   14   21 1
    23   15   22 1
    24   15   23 1
    25   15   24 1
@<TRIPOS>MOLECULE
ZINC40999780
   24    25     0     0     0
SMALL
USER_CHARGES

@<TRIPOS>ATOM
      1 C1         -0.0168    1.3912    0.0097 C.ar      1 <0>        -0.0689
      2 C2          1.1698    2.0950    0.0021 C.ar      1 <0>        -0.0922
      3 C3          2.3782    1.4201   -0.0130 C.ar      1 <0>        -0.0052
      4 C4          2.4040    0.0343   -0.0212 C.ar      1 <0>        -0.0367
      5 C5          1.2229   -0.6801   -0.0142 C.ar      1 <0>        -0.0461
      6 C6          0.0021   -0.0041    0.0020 C.ar      1 <0>        -0.0243
      7 C7         -1.2666   -0.7634    0.0105 C.2       1 <0>         0.1743
      8 N1         -1.4624   -2.0745    0.0109 N.2       1 <0>        -0.5024
      9 C8         -2.6723   -2.5828    0.0192 C.2       1 <0>        -0.0141
     10 C9         -3.7533   -1.7585    0.0276 C.2       1 <0>        -0.1777
     11 S1         -2.9498   -0.1607    0.0311 S.3       1 <0>         0.1122
     12 C10        -2.8631   -4.0777    0.0188 C.3       1 <0>         0.0791
     13 N2         -2.8149   -4.5771   -1.3618 N.4       1 <0>        -0.6351
     14 Cl1         3.9239   -0.8042   -0.0408 Cl        1 <0>        -0.0251
     15 Cl2         3.8672    2.3126   -0.0224 Cl        1 <0>        -0.0209
     16 H1         -0.9588    1.9192    0.0260 H         1 <0>         0.1452
     17 H2          1.1558    3.1749    0.0077 H         1 <0>         0.1593
     18 H3          1.2436   -1.7599   -0.0213 H         1 <0>         0.1545
     19 H4         -4.8057   -2.0012    0.0350 H         1 <0>         0.2130
     20 H5         -2.0700   -4.5453    0.6022 H         1 <0>         0.1482
     21 H6         -3.8299   -4.3207    0.4596 H         1 <0>         0.1494
     22 H7         -3.5491   -4.1442   -1.9019 H         1 <0>         0.4339
     23 H8         -1.9199   -4.3521   -1.7698 H         1 <0>         0.4386
     24 H9         -2.9426   -5.5780   -1.3621 H         1 <0>         0.4411
@<TRIPOS>BOND
     1    1    6 ar
     2    1    2 ar
     3    1   16 1
     4    2    3 ar
     5    2   17 1
     6    3    4 ar
     7    3   15 1
     8    4    5 ar
     9    4   14 1
    10    5    6 ar
    11    5   18 1
    12    6    7 1
    13    7   11 1
    14    7    8 2
    15    8    9 1
    16    9   10 2
    17    9   12 1
    18   10   11 1
    19   10   19 1
    20   12   13 1
    21   12   20 1
    22   12   21 1
    23   13   22 1
    24   13   23 1
    25   13   24 1
@<TRIPOS>MOLECULE
ZINC12370330
   27    28     0     0     0
SMALL
USER_CHARGES
1-[2-(3-chlorophenyl)thiazol-4-yl]-N-methyl-methanamine
@<TRIPOS>ATOM
      1 C1          0.8371    5.4837   -1.3964 C.3       1 <0>        -0.0426
      2 C2          1.0435    3.5240    0.0105 C.3       1 <0>         0.0808
      3 C3          1.0962    2.0180    0.0024 C.2       1 <0>        -0.0111
      4 C4          2.2960    1.3786   -0.0125 C.2       1 <0>        -0.1805
      5 S1          1.7604   -0.3278   -0.0165 S.3       1 <0>         0.1018
      6 C5          0.0021   -0.0041    0.0020 C.2       1 <0>         0.1799
      7 N1         -0.0159    1.3214    0.0093 N.2       1 <0>        -0.5047
      8 C6         -1.1278   -0.9580    0.0073 C.ar      1 <0>        -0.0278
      9 C7         -2.4417   -0.4878    0.0276 C.ar      1 <0>        -0.0608
     10 C8         -3.4919   -1.3823    0.0271 C.ar      1 <0>        -0.1046
     11 C9         -3.2453   -2.7437    0.0175 C.ar      1 <0>        -0.0760
     12 C10        -1.9445   -3.2172    0.0026 C.ar      1 <0>        -0.0343
     13 C11        -0.8847   -2.3317   -0.0023 C.ar      1 <0>        -0.0790
     14 Cl1        -1.6449   -4.9272   -0.0094 Cl        1 <0>        -0.0440
     15 H1         -0.0125    5.8280   -0.8068 H         1 <0>         0.1243
     16 H2          1.7580    5.8909   -0.9789 H         1 <0>         0.1242
     17 H3          0.7249    5.8213   -2.4268 H         1 <0>         0.1265
     18 H4          0.1953    3.8547    0.6100 H         1 <0>         0.1445
     19 H5          1.9658    3.9176    0.4378 H         1 <0>         0.1453
     20 H6          3.2954    1.7878   -0.0203 H         1 <0>         0.2114
     21 H7         -2.6360    0.5745    0.0397 H         1 <0>         0.1416
     22 H8         -4.5090   -1.0192    0.0387 H         1 <0>         0.1475
     23 H9         -4.0710   -3.4398    0.0220 H         1 <0>         0.1471
     24 H10         0.1299   -2.7018   -0.0133 H         1 <0>         0.1392
     25 N2          0.8916    4.0098   -1.3740 N.4       1 <0>        -0.5187
     26 H11         1.6912    3.6919   -1.9341 H         1 <0>         0.4326
     27 H12         0.0234    3.6327   -1.7719 H         1 <0>         0.4375
@<TRIPOS>BOND
     1    1   15 1
     2    1   16 1
     3    1   17 1
     4    1   25 1
     5    2    3 1
     6    2   18 1
     7    2   19 1
     8    2   25 1
     9    3    7 1
    10    3    4 2
    11    4    5 1
    12    4   20 1
    13    5    6 1
    14    6    7 2
    15    6    8 1
    16    8   13 ar
    17    8    9 ar
    18    9   10 ar
    19    9   21 1
    20   10   11 ar
    21   10   22 1
    22   11   12 ar
    23   11   23 1
    24   12   13 ar
    25   12   14 1
    26   13   24 1
    27   25   26 1
    28   25   27 1
@<TRIPOS>MOLECULE
ZINC62792826
   24    25     0     0     0
SMALL
USER_CHARGES

@<TRIPOS>ATOM
      1 C1         -0.0168    1.3912    0.0097 C.ar      1 <0>        -0.0505
      2 C2          1.1695    2.0952    0.0021 C.ar      1 <0>        -0.1358
      3 C3          2.3789    1.4197   -0.0135 C.ar      1 <0>         0.1480
      4 C4          2.4040    0.0328   -0.0216 C.ar      1 <0>        -0.0813
      5 C5          1.2228   -0.6807   -0.0137 C.ar      1 <0>        -0.0284
      6 C6          0.0021   -0.0041    0.0020 C.ar      1 <0>        -0.0402
      7 C7         -1.2667   -0.7631    0.0105 C.2       1 <0>         0.1774
      8 N1         -1.4627   -2.0742    0.0109 N.2       1 <0>        -0.5042
      9 C8         -2.6730   -2.5821    0.0199 C.2       1 <0>        -0.0136
     10 C9         -3.7536   -1.7576    0.0291 C.2       1 <0>        -0.1783
     11 S1         -2.9498   -0.1600    0.0311 S.3       1 <0>         0.1098
     12 C10        -2.8642   -4.0770    0.0196 C.3       1 <0>         0.0791
     13 N2         -2.8170   -4.5763   -1.3611 N.4       1 <0>        -0.6352
     14 Cl1         3.9235   -0.8065   -0.0424 Cl        1 <0>        -0.0247
     15 F1          3.5377    2.1140   -0.0213 F         1 <0>        -0.1101
     16 H1         -0.9589    1.9191    0.0260 H         1 <0>         0.1465
     17 H2          1.1554    3.1751    0.0081 H         1 <0>         0.1625
     18 H3          1.2428   -1.7605   -0.0204 H         1 <0>         0.1556
     19 H4         -4.8060   -2.0001    0.0371 H         1 <0>         0.2127
     20 H5         -2.0709   -4.5449    0.6025 H         1 <0>         0.1481
     21 H6         -3.8308   -4.3197    0.4609 H         1 <0>         0.1492
     22 H7         -3.5514   -4.1432   -1.9007 H         1 <0>         0.4339
     23 H8         -1.9222   -4.3516   -1.7696 H         1 <0>         0.4386
     24 H9         -2.9450   -5.5772   -1.3613 H         1 <0>         0.4411
@<TRIPOS>BOND
     1    1    6 ar
     2    1    2 ar
     3    1   16 1
     4    2    3 ar
     5    2   17 1
     6    3    4 ar
     7    3   15 1
     8    4    5 ar
     9    4   14 1
    10    5    6 ar
    11    5   18 1
    12    6    7 1
    13    7   11 1
    14    7    8 2
    15    8    9 1
    16    9   10 2
    17    9   12 1
    18   10   11 1
    19   10   19 1
    20   12   13 1
    21   12   20 1
    22   12   21 1
    23   13   22 1
    24   13   23 1
    25   13   24 1
@<TRIPOS>MOLECULE
ZINC40999779
   24    25     0     0     0
SMALL
USER_CHARGES

@<TRIPOS>ATOM
      1 C1         -0.0167    1.3790    0.0096 C.ar      1 <0>        -0.0951
      2 C2          1.1665    2.0890    0.0021 C.ar      1 <0>        -0.0723
      3 C3          2.3851    1.4095   -0.0131 C.ar      1 <0>        -0.0192
      4 C4          2.3990    0.0130   -0.0207 C.ar      1 <0>         0.0100
      5 C5          1.2069   -0.6860   -0.0131 C.ar      1 <0>        -0.0366
      6 C6          0.0021   -0.0041    0.0020 C.ar      1 <0>        -0.0666
      7 Cl1         1.2201   -2.4219   -0.0224 Cl        1 <0>        -0.0263
      8 Cl2         3.9095   -0.8424   -0.0402 Cl        1 <0>        -0.0183
      9 C7          3.6562    2.1646   -0.0217 C.2       1 <0>         0.1684
     10 N1          4.9026    1.7136   -0.0415 N.2       1 <0>        -0.4845
     11 C8          5.9249    2.5366   -0.0467 C.2       1 <0>        -0.0155
     12 C9          5.7137    3.8794   -0.0317 C.2       1 <0>        -0.1762
     13 S1          3.9261    3.9321   -0.0160 S.3       1 <0>         0.1110
     14 C10         7.3306    1.9939   -0.0689 C.3       1 <0>         0.0790
     15 N2          7.7607    1.6920    1.3029 N.4       1 <0>        -0.6354
     16 H1         -0.9600    1.9047    0.0260 H         1 <0>         0.1556
     17 H2          1.1494    3.1688    0.0077 H         1 <0>         0.1444
     18 H3         -0.9272   -0.5544    0.0079 H         1 <0>         0.1562
     19 H4          6.4276    4.6899   -0.0327 H         1 <0>         0.2122
     20 H5          7.3591    1.0832   -0.6673 H         1 <0>         0.1471
     21 H6          7.9998    2.7359   -0.5045 H         1 <0>         0.1492
     22 H7          7.7343    2.5350    1.8568 H         1 <0>         0.4339
     23 H8          7.1413    1.0051    1.7061 H         1 <0>         0.4385
     24 H9          8.7019    1.3286    1.2881 H         1 <0>         0.4407
@<TRIPOS>BOND
     1    1    6 ar
     2    1    2 ar
     3    1   16 1
     4    2    3 ar
     5    2   17 1
     6    3    4 ar
     7    3    9 1
     8    4    5 ar
     9    4    8 1
    10    5    6 ar
    11    5    7 1
    12    6   18 1
    13    9   13 1
    14    9   10 2
    15   10   11 1
    16   11   12 2
    17   11   14 1
    18   12   13 1
    19   12   19 1
    20   14   15 1
    21   14   20 1
    22   14   21 1
    23   15   22 1
    24   15   23 1
    25   15   24 1
@<TRIPOS>MOLECULE
ZINC40999819
   27    28     0     0     0
SMALL
USER_CHARGES

@<TRIPOS>ATOM
      1 C1         -0.0178    1.4648    0.0101 C.3       1 <0>        -0.0470
      2 N1          0.0021   -0.0041    0.0020 N.4       1 <0>        -0.5088
      3 C2          0.6897   -0.4778   -1.2066 C.3       1 <0>         0.0765
      4 C3          0.7101   -1.9847   -1.2149 C.2       1 <0>        -0.0121
      5 C4         -0.2480   -2.6750   -1.8886 C.2       1 <0>        -0.1760
      6 S1          0.2638   -4.3567   -1.5592 S.3       1 <0>         0.1136
      7 C5          1.6939   -3.9576   -0.5629 C.2       1 <0>         0.1722
      8 N2          1.6558   -2.6326   -0.5763 N.2       1 <0>        -0.4993
      9 C6          2.6616   -4.8620    0.0946 C.ar      1 <0>        -0.0109
     10 C7          3.7168   -4.3358    0.8406 C.ar      1 <0>        -0.0552
     11 C8          4.6174   -5.1853    1.4524 C.ar      1 <0>        -0.0263
     12 C9          4.4748   -6.5567    1.3266 C.ar      1 <0>        -0.0713
     13 C10         3.4298   -7.0846    0.5877 C.ar      1 <0>        -0.0215
     14 C11         2.5197   -6.2451   -0.0238 C.ar      1 <0>        -0.0762
     15 Cl1         3.2594   -8.8055    0.4351 Cl        1 <0>        -0.0293
     16 Cl2         5.9312   -4.5325    2.3805 Cl        1 <0>        -0.0325
     17 H1          1.0047    1.8421    0.0024 H         1 <0>         0.1256
     18 H2         -0.5450    1.8259   -0.8730 H         1 <0>         0.1254
     19 H3         -0.5280    1.8163    0.9069 H         1 <0>         0.1281
     20 H4          0.4901   -0.3383    0.8195 H         1 <0>         0.4334
     21 H5          0.1625   -0.1167   -2.0897 H         1 <0>         0.1470
     22 H6          1.7123   -0.1005   -1.2143 H         1 <0>         0.1461
     23 H7         -1.0862   -2.3092   -2.4632 H         1 <0>         0.2131
     24 H8          3.8292   -3.2662    0.9392 H         1 <0>         0.1526
     25 H9          5.1817   -7.2172    1.8065 H         1 <0>         0.1578
     26 H10         1.7021   -6.6581   -0.5959 H         1 <0>         0.1464
     27 H11        -0.9445   -0.3533    0.0092 H         1 <0>         0.4286
@<TRIPOS>BOND
     1    1    2 1
     2    1   17 1
     3    1   18 1
     4    1   19 1
     5    2    3 1
     6    2   20 1
     7    2   27 1
     8    3    4 1
     9    3   21 1
    10    3   22 1
    11    4    8 1
    12    4    5 2
    13    5    6 1
    14    5   23 1
    15    6    7 1
    16    7    8 2
    17    7    9 1
    18    9   14 ar
    19    9   10 ar
    20   10   11 ar
    21   10   24 1
    22   11   12 ar
    23   11   16 1
    24   12   13 ar
    25   12   25 1
    26   13   14 ar
    27   13   15 1
    28   14   26 1
@<TRIPOS>MOLECULE
ZINC02563882
   24    25     0     0     0
SMALL
USER_CHARGES
[2-(4-chlorophenyl)thiazol-4-yl]methanamine
@<TRIPOS>ATOM
      1 C1         -2.4414   -0.4876    0.0295 C.ar      1 <0>        -0.0504
      2 C2         -3.4914   -1.3822    0.0302 C.ar      1 <0>        -0.1114
      3 C3         -3.2437   -2.7446    0.0204 C.ar      1 <0>        -0.0055
      4 C4         -1.9422   -3.2172    0.0045 C.ar      1 <0>        -0.1061
      5 C5         -0.8843   -2.3321   -0.0017 C.ar      1 <0>        -0.0709
      6 C6         -1.1277   -0.9579    0.0081 C.ar      1 <0>        -0.0398
      7 C7          0.0021   -0.0041    0.0020 C.2       1 <0>         0.1811
      8 N1         -0.0159    1.3214    0.0093 N.2       1 <0>        -0.5074
      9 C8          1.0964    2.0180    0.0024 C.2       1 <0>        -0.0143
     10 C9          2.2960    1.3786   -0.0125 C.2       1 <0>        -0.1809
     11 S1          1.7604   -0.3277   -0.0165 S.3       1 <0>         0.1010
     12 C10         1.0438    3.5240    0.0110 C.3       1 <0>         0.0836
     13 H1          0.8546    5.0246   -1.3857 H         1 <0>         0.4424
     14 H2          1.6326    3.6700   -1.9563 H         1 <0>         0.4356
     15 Cl1        -4.5702   -3.8645    0.0287 Cl        1 <0>        -0.0427
     16 H3         -2.6357    0.5747    0.0413 H         1 <0>         0.1445
     17 H4         -4.5085   -1.0194    0.0426 H         1 <0>         0.1479
     18 H5         -1.7551   -4.2808   -0.0027 H         1 <0>         0.1496
     19 H6          0.1304   -2.7018   -0.0137 H         1 <0>         0.1385
     20 H7          3.2955    1.7878   -0.0195 H         1 <0>         0.2114
     21 H8          0.1958    3.8546    0.6107 H         1 <0>         0.1455
     22 H9          1.9663    3.9173    0.4383 H         1 <0>         0.1495
     23 N2          0.8700    4.0062   -1.3705 N.4       1 <0>        -0.6439
     24 H10        -0.0192    3.6521   -1.7422 H         1 <0>         0.4426
@<TRIPOS>BOND
     1    1    6 ar
     2    1    2 ar
     3    1   16 1
     4    2    3 ar
     5    2   17 1
     6    3    4 ar
     7    3   15 1
     8    4    5 ar
     9    4   18 1
    10    5    6 ar
    11    5   19 1
    12    6    7 1
    13    7   11 1
    14    7    8 2
    15    8    9 1
    16    9   10 2
    17    9   12 1
    18   10   11 1
    19   10   20 1
    20   12   21 1
    21   12   22 1
    22   12   23 1
    23   13   23 1
    24   14   23 1
    25   23   24 1
@<TRIPOS>MOLECULE
ZINC00158876
   24    25     0     0     0
SMALL
USER_CHARGES
(2-phenylthiazol-4-yl)methanamine
@<TRIPOS>ATOM
      1 C1          2.3776    1.4189   -0.0135 C.ar      1 <0>        -0.0821
      2 C2          1.1702    2.0943    0.0021 C.ar      1 <0>        -0.1148
      3 C3         -0.0168    1.3913    0.0097 C.ar      1 <0>        -0.0838
      4 C4          0.0021   -0.0041    0.0020 C.ar      1 <0>        -0.0457
      5 C5          1.2232   -0.6793   -0.0133 C.ar      1 <0>        -0.0632
      6 C6          2.4032    0.0356   -0.0207 C.ar      1 <0>        -0.1205
      7 C7         -1.2664   -0.7639    0.0105 C.2       1 <0>         0.1881
      8 N1         -1.4618   -2.0750    0.0054 N.2       1 <0>        -0.5109
      9 C8         -2.6714   -2.5837    0.0147 C.2       1 <0>        -0.0128
     10 C9         -3.7528   -1.7598    0.0299 C.2       1 <0>        -0.1860
     11 S1         -2.9498   -0.1617    0.0384 S.3       1 <0>         0.0931
     12 C10        -2.8616   -4.0786    0.0081 C.3       1 <0>         0.0839
     13 H1          3.3041    1.9738   -0.0197 H         1 <0>         0.1362
     14 H2          1.1570    3.1742    0.0077 H         1 <0>         0.1385
     15 H3         -0.9587    1.9197    0.0170 H         1 <0>         0.1285
     16 H4          1.2446   -1.7590   -0.0189 H         1 <0>         0.1343
     17 H5          3.3490   -0.4857   -0.0325 H         1 <0>         0.1368
     18 H6         -4.8050   -2.0029    0.0387 H         1 <0>         0.2103
     19 H7         -2.0667   -4.5486    0.5872 H         1 <0>         0.1478
     20 H8         -3.8271   -4.3240    0.4503 H         1 <0>         0.1461
     21 H9         -1.9571   -4.3007   -1.8279 H         1 <0>         0.4400
     22 H10        -2.9422   -5.5725   -1.4062 H         1 <0>         0.4421
     23 N2         -2.8369   -4.5595   -1.3845 N.4       1 <0>        -0.6438
     24 H11        -3.6124   -4.1309   -1.9034 H         1 <0>         0.4377
@<TRIPOS>BOND
     1    1    6 ar
     2    1    2 ar
     3    1   13 1
     4    2    3 ar
     5    2   14 1
     6    3    4 ar
     7    3   15 1
     8    4    5 ar
     9    4    7 1
    10    5    6 ar
    11    5   16 1
    12    6   17 1
    13    7   11 1
    14    7    8 2
    15    8    9 1
    16    9   10 2
    17    9   12 1
    18   10   11 1
    19   10   18 1
    20   12   19 1
    21   12   20 1
    22   12   23 1
    23   21   23 1
    24   22   23 1
    25   23   24 1
@<TRIPOS>MOLECULE
ZINC70840481
   27    28     0     0     0
SMALL
USER_CHARGES

@<TRIPOS>ATOM
      1 C1         -0.0187    1.5258    0.0104 C.3       1 <0>        -0.1750
      2 C2          0.0021   -0.0041    0.0020 C.3       1 <0>         0.1096
      3 H1         -1.0205   -0.3814    0.0098 H         1 <0>         0.1581
      4 C3          0.7074   -0.4901   -1.2379 C.2       1 <0>         0.0401
      5 C4          1.7603   -1.3438   -1.1319 C.2       1 <0>        -0.2597
      6 S1          2.1782   -1.5677   -2.8564 S.3       1 <0>         0.1108
      7 C5          0.9086   -0.5028   -3.5281 C.2       1 <0>         0.1936
      8 N1          0.3031   -0.0942   -2.4219 N.2       1 <0>        -0.4973
      9 C6          0.6110   -0.1712   -4.9380 C.ar      1 <0>        -0.0315
     10 C7         -0.4356    0.6988   -5.2474 C.ar      1 <0>        -0.0570
     11 C8         -0.7087    1.0046   -6.5646 C.ar      1 <0>        -0.1047
     12 C9          0.0523    0.4510   -7.5788 C.ar      1 <0>        -0.0738
     13 C10         1.0920   -0.4128   -7.2793 C.ar      1 <0>        -0.0355
     14 C11         1.3789   -0.7222   -5.9642 C.ar      1 <0>        -0.0774
     15 Cl1         2.0409   -1.1030   -8.5587 Cl        1 <0>        -0.0441
     16 N2          0.7126   -0.4907    1.1921 N.4       1 <0>        -0.6350
     17 H2          1.0039    1.9031    0.0027 H         1 <0>         0.0808
     18 H3         -0.5459    1.8868   -0.8726 H         1 <0>         0.1151
     19 H4         -0.5289    1.8773    0.9072 H         1 <0>         0.0885
     20 H5          2.2178   -1.7685   -0.2506 H         1 <0>         0.1992
     21 H6         -1.0308    1.1316   -4.4569 H         1 <0>         0.1437
     22 H7         -1.5186    1.6774   -6.8047 H         1 <0>         0.1485
     23 H8         -0.1659    0.6933   -8.6083 H         1 <0>         0.1476
     24 H9          2.1929   -1.3926   -5.7311 H         1 <0>         0.1390
     25 H10         0.2403   -0.1653    2.0223 H         1 <0>         0.4443
     26 H11         0.7262   -1.4996    1.1866 H         1 <0>         0.4369
     27 H12         1.6592   -0.1414    1.1850 H         1 <0>         0.4352
@<TRIPOS>BOND
     1    1    2 1
     2    1   17 1
     3    1   18 1
     4    1   19 1
     5    2    3 1
     6    2    4 1
     7    2   16 1
     8    4    8 1
     9    4    5 2
    10    5    6 1
    11    5   20 1
    12    6    7 1
    13    7    8 2
    14    7    9 1
    15    9   14 ar
    16    9   10 ar
    17   10   11 ar
    18   10   21 1
    19   11   12 ar
    20   11   22 1
    21   12   13 ar
    22   12   23 1
    23   13   14 ar
    24   13   15 1
    25   14   24 1
    26   16   25 1
    27   16   26 1
    28   16   27 1
@<TRIPOS>MOLECULE
ZINC70840487
   27    28     0     0     0
SMALL
USER_CHARGES

@<TRIPOS>ATOM
      1 C1         -0.0187    1.5258    0.0104 C.3       1 <0>        -0.1774
      2 C2          0.0021   -0.0041    0.0020 C.3       1 <0>         0.1174
      3 H1         -1.0205   -0.3814    0.0098 H         1 <0>         0.1536
      4 C3          0.7309   -0.5033    1.2229 C.2       1 <0>        -0.0085
      5 C4          0.1264   -1.3836    2.0644 C.2       1 <0>        -0.1743
      6 S1          1.4145   -1.6119    3.2840 S.3       1 <0>         0.1037
      7 C5          2.6140   -0.5131    2.5418 C.2       1 <0>         0.1794
      8 N1          1.9522   -0.0933    1.4727 N.2       1 <0>        -0.5105
      9 C6          3.9787   -0.1691    2.9957 C.ar      1 <0>        -0.0270
     10 C7          4.7560    0.7279    2.2616 C.ar      1 <0>        -0.0620
     11 C8          6.0285    1.0450    2.6898 C.ar      1 <0>        -0.1047
     12 C9          6.5352    0.4761    3.8446 C.ar      1 <0>        -0.0762
     13 C10         5.7697   -0.4146    4.5778 C.ar      1 <0>        -0.0338
     14 C11         4.4923   -0.7356    4.1626 C.ar      1 <0>        -0.0791
     15 Cl1         6.4143   -1.1239    6.0253 Cl        1 <0>        -0.0434
     16 N2          0.6897   -0.4778   -1.2066 N.4       1 <0>        -0.6341
     17 H2          1.0039    1.9031    0.0027 H         1 <0>         0.0899
     18 H3         -0.5459    1.8868   -0.8726 H         1 <0>         0.0867
     19 H4         -0.5289    1.8773    0.9072 H         1 <0>         0.1039
     20 H5         -0.8589   -1.8227    2.0115 H         1 <0>         0.2117
     21 H6          4.3622    1.1728    1.3597 H         1 <0>         0.1406
     22 H7          6.6307    1.7389    2.1220 H         1 <0>         0.1472
     23 H8          7.5321    0.7274    4.1753 H         1 <0>         0.1471
     24 H9          3.8940   -1.4271    4.7374 H         1 <0>         0.1393
     25 H10         1.6363   -0.1286   -1.2138 H         1 <0>         0.4380
     26 H11         0.7033   -1.4867   -1.2121 H         1 <0>         0.4348
     27 H12         0.2017   -0.1436   -2.0240 H         1 <0>         0.4377
@<TRIPOS>BOND
     1    1    2 1
     2    1   17 1
     3    1   18 1
     4    1   19 1
     5    2    3 1
     6    2    4 1
     7    2   16 1
     8    4    8 1
     9    4    5 2
    10    5    6 1
    11    5   20 1
    12    6    7 1
    13    7    8 2
    14    7    9 1
    15    9   14 ar
    16    9   10 ar
    17   10   11 ar
    18   10   21 1
    19   11   12 ar
    20   11   22 1
    21   12   13 ar
    22   12   23 1
    23   13   14 ar
    24   13   15 1
    25   14   24 1
    26   16   25 1
    27   16   26 1
    28   16   27 1
@<TRIPOS>MOLECULE
ZINC11568376
   27    28     0     0     0
SMALL
USER_CHARGES
[2-(p-tolyl)thiazol-4-yl]methanamine
@<TRIPOS>ATOM
      1 C1         -4.3950   -3.7166    0.0262 C.3       1 <0>        -0.1282
      2 C2         -3.2436   -2.7444    0.0200 C.ar      1 <0>        -0.0437
      3 C3         -1.9433   -3.2169    0.0045 C.ar      1 <0>        -0.1184
      4 C4         -0.8847   -2.3321   -0.0017 C.ar      1 <0>        -0.0774
      5 C5         -1.1278   -0.9580    0.0081 C.ar      1 <0>        -0.0538
      6 C6         -2.4415   -0.4880    0.0295 C.ar      1 <0>        -0.0568
      7 C7         -3.4913   -1.3833    0.0302 C.ar      1 <0>        -0.1241
      8 C8          0.0021   -0.0041    0.0020 C.2       1 <0>         0.1910
      9 N1         -0.0159    1.3214    0.0093 N.2       1 <0>        -0.5134
     10 C9          1.0962    2.0180    0.0024 C.2       1 <0>        -0.0127
     11 C10         2.2960    1.3786   -0.0125 C.2       1 <0>        -0.1859
     12 S1          1.7604   -0.3278   -0.0165 S.3       1 <0>         0.0904
     13 C11         1.0435    3.5240    0.0105 C.3       1 <0>         0.0838
     14 H1         -4.6624   -3.9565    1.0553 H         1 <0>         0.0820
     15 H2         -5.2518   -3.2682   -0.4768 H         1 <0>         0.0747
     16 H3         -4.1037   -4.6282   -0.4955 H         1 <0>         0.0752
     17 H4         -1.7566   -4.2806   -0.0030 H         1 <0>         0.1379
     18 H5          0.1298   -2.7022   -0.0137 H         1 <0>         0.1287
     19 H6         -2.6362    0.5742    0.0412 H         1 <0>         0.1346
     20 H7         -4.5086   -1.0208    0.0426 H         1 <0>         0.1363
     21 H8          3.2954    1.7878   -0.0205 H         1 <0>         0.2099
     22 H9          0.1953    3.8547    0.6100 H         1 <0>         0.1449
     23 H10         1.9658    3.9176    0.4378 H         1 <0>         0.1488
     24 H11         0.8544    5.0242   -1.3867 H         1 <0>         0.4419
     25 H12         1.6326    3.6694   -1.9568 H         1 <0>         0.4354
     26 N2          0.8699    4.0057   -1.3712 N.4       1 <0>        -0.6438
     27 H13        -0.0192    3.6515   -1.7430 H         1 <0>         0.4426
@<TRIPOS>BOND
     1    1    2 1
     2    1   14 1
     3    1   15 1
     4    1   16 1
     5    2    7 ar
     6    2    3 ar
     7    3    4 ar
     8    3   17 1
     9    4    5 ar
    10    4   18 1
    11    5    6 ar
    12    5    8 1
    13    6    7 ar
    14    6   19 1
    15    7   20 1
    16    8   12 1
    17    8    9 2
    18    9   10 1
    19   10   11 2
    20   10   13 1
    21   11   12 1
    22   11   21 1
    23   13   22 1
    24   13   23 1
    25   13   26 1
    26   24   26 1
    27   25   26 1
    28   26   27 1
@<TRIPOS>MOLECULE
ZINC41009958
   27    28     0     0     0
SMALL
USER_CHARGES

@<TRIPOS>ATOM
      1 C1         -0.0178    1.4648    0.0101 C.3       1 <0>        -0.0469
      2 N1          0.0021   -0.0041    0.0020 N.4       1 <0>        -0.5087
      3 C2          0.7126   -0.4907    1.1921 C.3       1 <0>         0.0767
      4 C3          0.7330   -1.9975    1.1838 C.2       1 <0>        -0.0120
      5 C4          1.8060   -2.6611    0.6774 C.2       1 <0>        -0.1768
      6 S1          1.2915   -4.3563    0.9229 S.3       1 <0>         0.1089
      7 C5         -0.2922   -3.9970    1.6711 C.2       1 <0>         0.1740
      8 N2         -0.2827   -2.6713    1.6705 N.2       1 <0>        -0.5007
      9 C6         -1.3304   -4.9277    2.1632 C.ar      1 <0>        -0.0229
     10 C7         -2.5125   -4.4306    2.7143 C.ar      1 <0>        -0.0488
     11 C8         -3.4780   -5.3030    3.1714 C.ar      1 <0>        -0.0972
     12 C9         -3.2769   -6.6703    3.0846 C.ar      1 <0>        -0.0053
     13 C10        -2.1055   -7.1703    2.5389 C.ar      1 <0>        -0.0320
     14 C11        -1.1346   -6.3062    2.0729 C.ar      1 <0>        -0.0672
     15 Cl1        -1.8613   -8.8858    2.4344 Cl        1 <0>        -0.0222
     16 Cl2        -4.4968   -7.7621    3.6621 Cl        1 <0>        -0.0214
     17 H1          1.0047    1.8421    0.0024 H         1 <0>         0.1253
     18 H2         -0.5450    1.8259   -0.8730 H         1 <0>         0.1281
     19 H3         -0.5280    1.8163    0.9069 H         1 <0>         0.1255
     20 H4         -0.9445   -0.3533    0.0092 H         1 <0>         0.4332
     21 H5          1.7352   -0.1134    1.1844 H         1 <0>         0.1467
     22 H6          0.2024   -0.1392    2.0889 H         1 <0>         0.1459
     23 H7          2.7166   -2.2724    0.2461 H         1 <0>         0.2125
     24 H8         -2.6707   -3.3644    2.7831 H         1 <0>         0.1512
     25 H9         -4.3927   -4.9190    3.5983 H         1 <0>         0.1575
     26 H10        -0.2237   -6.6965    1.6436 H         1 <0>         0.1481
     27 H11         0.4744   -0.3295   -0.8281 H         1 <0>         0.4287
@<TRIPOS>BOND
     1    1    2 1
     2    1   17 1
     3    1   18 1
     4    1   19 1
     5    2    3 1
     6    2   20 1
     7    2   27 1
     8    3    4 1
     9    3   21 1
    10    3   22 1
    11    4    8 1
    12    4    5 2
    13    5    6 1
    14    5   23 1
    15    6    7 1
    16    7    8 2
    17    7    9 1
    18    9   14 ar
    19    9   10 ar
    20   10   11 ar
    21   10   24 1
    22   11   12 ar
    23   11   25 1
    24   12   13 ar
    25   12   16 1
    26   13   14 ar
    27   13   15 1
    28   14   26 1
@<TRIPOS>MOLECULE
ZINC40420183
   30    31     0     0     0
SMALL
USER_CHARGES

@<TRIPOS>ATOM
      1 C1         -0.0187    1.5258    0.0104 C.3       1 <0>        -0.1901
      2 C2          0.0021   -0.0041    0.0020 C.3       1 <0>        -0.0095
      3 N1         -1.3761   -0.5125    0.0124 N.4       1 <0>        -0.5090
      4 C3         -1.3562   -1.9814    0.0044 C.3       1 <0>         0.0781
      5 C4         -2.7700   -2.5030    0.0151 C.2       1 <0>        -0.0104
      6 C5         -3.3827   -2.8335   -1.1528 C.2       1 <0>        -0.1801
      7 S1         -4.9780   -3.3700   -0.5479 S.3       1 <0>         0.1019
      8 C6         -4.6554   -3.0963    1.1893 C.2       1 <0>         0.1796
      9 N2         -3.4098   -2.6442    1.1520 N.2       1 <0>        -0.5042
     10 C7         -5.5384   -3.3192    2.3543 C.ar      1 <0>        -0.0275
     11 C8         -5.0852   -3.0304    3.6424 C.ar      1 <0>        -0.0609
     12 C9         -5.9134   -3.2403    4.7255 C.ar      1 <0>        -0.1046
     13 C10        -7.1912   -3.7361    4.5376 C.ar      1 <0>        -0.0762
     14 C11        -7.6474   -4.0248    3.2627 C.ar      1 <0>        -0.0343
     15 C12        -6.8299   -3.8135    2.1698 C.ar      1 <0>        -0.0790
     16 Cl1        -9.2522   -4.6471    3.0369 Cl        1 <0>        -0.0440
     17 H1          1.0039    1.9031    0.0027 H         1 <0>         0.1083
     18 H2         -0.5459    1.8868   -0.8726 H         1 <0>         0.0805
     19 H3         -0.5289    1.8773    0.9072 H         1 <0>         0.0807
     20 H4          0.5123   -0.3556   -0.8948 H         1 <0>         0.1326
     21 H5          0.5293   -0.3651    0.8851 H         1 <0>         0.1327
     22 H6         -1.8484   -0.1871    0.8426 H         1 <0>         0.4309
     23 H7         -0.8460   -2.3329   -0.8924 H         1 <0>         0.1461
     24 H8         -0.8290   -2.3425    0.8874 H         1 <0>         0.1453
     25 H9         -3.0097   -2.7848   -2.1651 H         1 <0>         0.2115
     26 H10        -4.0878   -2.6436    3.7910 H         1 <0>         0.1416
     27 H11        -5.5632   -3.0175    5.7226 H         1 <0>         0.1474
     28 H12        -7.8355   -3.8990    5.3890 H         1 <0>         0.1471
     29 H13        -7.1879   -4.0347    1.1752 H         1 <0>         0.1392
     30 H14        -1.8641   -0.1783   -0.8050 H         1 <0>         0.4261
@<TRIPOS>BOND
     1    1    2 1
     2    1   17 1
     3    1   18 1
     4    1   19 1
     5    2    3 1
     6    2   20 1
     7    2   21 1
     8    3    4 1
     9    3   22 1
    10    3   30 1
    11    4    5 1
    12    4   23 1
    13    4   24 1
    14    5    9 1
    15    5    6 2
    16    6    7 1
    17    6   25 1
    18    7    8 1
    19    8    9 2
    20    8   10 1
    21   10   15 ar
    22   10   11 ar
    23   11   12 ar
    24   11   26 1
    25   12   13 ar
    26   12   27 1
    27   13   14 ar
    28   13   28 1
    29   14   15 ar
    30   14   16 1
    31   15   29 1
@<TRIPOS>MOLECULE
ZINC70842504
   27    28     0     0     0
SMALL
USER_CHARGES

@<TRIPOS>ATOM
      1 C1         -0.0187    1.5258    0.0104 C.3       1 <0>        -0.1756
      2 C2          0.0021   -0.0041    0.0020 C.3       1 <0>         0.1094
      3 H1          0.5123   -0.3556   -0.8948 H         1 <0>         0.1589
      4 C3          0.7309   -0.5033    1.2229 C.2       1 <0>         0.0393
      5 C4          0.1264   -1.3835    2.0645 C.2       1 <0>        -0.2555
      6 S1          1.4142   -1.6112    3.2844 S.3       1 <0>         0.1226
      7 C5          2.6137   -0.5123    2.5423 C.2       1 <0>         0.1861
      8 N1          1.9522   -0.0933    1.4727 N.2       1 <0>        -0.4922
      9 C6          3.9780   -0.1677    2.9967 C.ar      1 <0>        -0.0147
     10 C7          4.7551    0.7291    2.2626 C.ar      1 <0>        -0.0514
     11 C8          6.0285    1.0470    2.6918 C.ar      1 <0>        -0.0266
     12 C9          6.5345    0.4779    3.8480 C.ar      1 <0>        -0.0692
     13 C10         5.7682   -0.4125    4.5805 C.ar      1 <0>        -0.0226
     14 C11         4.4912   -0.7337    4.1643 C.ar      1 <0>        -0.0747
     15 Cl1         6.4114   -1.1216    6.0287 Cl        1 <0>        -0.0295
     16 Cl2         6.9970    2.1621    1.7795 Cl        1 <0>        -0.0312
     17 N2         -1.3761   -0.5125    0.0124 N.4       1 <0>        -0.6352
     18 H2          1.0039    1.9031    0.0027 H         1 <0>         0.1154
     19 H3         -0.5459    1.8868   -0.8726 H         1 <0>         0.0891
     20 H4         -0.5289    1.8773    0.9072 H         1 <0>         0.0811
     21 H5         -0.8587   -1.8231    2.0112 H         1 <0>         0.2007
     22 H6          4.3615    1.1734    1.3603 H         1 <0>         0.1547
     23 H7          7.5311    0.7293    4.1796 H         1 <0>         0.1582
     24 H8          3.8925   -1.4247    4.7391 H         1 <0>         0.1462
     25 H9         -1.3624   -1.5214    0.0069 H         1 <0>         0.4369
     26 H10        -1.8484   -0.1871    0.8426 H         1 <0>         0.4352
     27 H11        -1.8641   -0.1783   -0.8050 H         1 <0>         0.4447
@<TRIPOS>BOND
     1    1    2 1
     2    1   18 1
     3    1   19 1
     4    1   20 1
     5    2    3 1
     6    2    4 1
     7    2   17 1
     8    4    8 1
     9    4    5 2
    10    5    6 1
    11    5   21 1
    12    6    7 1
    13    7    8 2
    14    7    9 1
    15    9   14 ar
    16    9   10 ar
    17   10   11 ar
    18   10   22 1
    19   11   12 ar
    20   11   16 1
    21   12   13 ar
    22   12   23 1
    23   13   14 ar
    24   13   15 1
    25   14   24 1
    26   17   25 1
    27   17   26 1
    28   17   27 1
@<TRIPOS>MOLECULE
ZINC62606517
   24    25     0     0     0
SMALL
USER_CHARGES

@<TRIPOS>ATOM
      1 C1         -0.0167    1.3792    0.0096 C.ar      1 <0>        -0.1092
      2 C2          1.1661    2.0896    0.0021 C.ar      1 <0>        -0.0550
      3 C3          2.3851    1.4109   -0.0132 C.ar      1 <0>        -0.0623
      4 C4          2.3996    0.0135   -0.0208 C.ar      1 <0>         0.1602
      5 C5          1.2064   -0.6861   -0.0132 C.ar      1 <0>        -0.0805
      6 C6          0.0021   -0.0041    0.0020 C.ar      1 <0>        -0.0487
      7 Cl1         1.2194   -2.4221   -0.0227 Cl        1 <0>        -0.0258
      8 F1          3.5752   -0.6520   -0.0361 F         1 <0>        -0.1058
      9 C7          3.6557    2.1666   -0.0217 C.2       1 <0>         0.1705
     10 N1          4.9024    1.7162   -0.0416 N.2       1 <0>        -0.4941
     11 C8          5.9243    2.5399   -0.0468 C.2       1 <0>        -0.0137
     12 C9          5.7124    3.8825   -0.0317 C.2       1 <0>        -0.1777
     13 S1          3.9247    3.9342   -0.0160 S.3       1 <0>         0.1136
     14 C10         7.3304    1.9980   -0.0691 C.3       1 <0>         0.0792
     15 N2          7.7606    1.6964    1.3027 N.4       1 <0>        -0.6349
     16 H1         -0.9601    1.9047    0.0260 H         1 <0>         0.1568
     17 H2          1.1485    3.1694    0.0078 H         1 <0>         0.1457
     18 H3         -0.9272   -0.5543    0.0083 H         1 <0>         0.1575
     19 H4          6.4257    4.6933   -0.0332 H         1 <0>         0.2133
     20 H5          7.3594    1.0875   -0.6675 H         1 <0>         0.1483
     21 H6          7.9990    2.7405   -0.5046 H         1 <0>         0.1494
     22 H7          7.7338    2.5393    1.8567 H         1 <0>         0.4335
     23 H8          7.1417    1.0091    1.7059 H         1 <0>         0.4391
     24 H9          8.7020    1.3336    1.2879 H         1 <0>         0.4409
@<TRIPOS>BOND
     1    1    6 ar
     2    1    2 ar
     3    1   16 1
     4    2    3 ar
     5    2   17 1
     6    3    4 ar
     7    3    9 1
     8    4    5 ar
     9    4    8 1
    10    5    6 ar
    11    5    7 1
    12    6   18 1
    13    9   13 1
    14    9   10 2
    15   10   11 1
    16   11   12 2
    17   11   14 1
    18   12   13 1
    19   12   19 1
    20   14   15 1
    21   14   20 1
    22   14   21 1
    23   15   22 1
    24   15   23 1
    25   15   24 1
@<TRIPOS>MOLECULE
ZINC70842507
   27    28     0     0     0
SMALL
USER_CHARGES

@<TRIPOS>ATOM
      1 C1         -0.0187    1.5258    0.0104 C.3       1 <0>        -0.1781
      2 C2          0.0021   -0.0041    0.0020 C.3       1 <0>         0.1173
      3 H1         -1.0205   -0.3814    0.0098 H         1 <0>         0.1544
      4 C3          0.7309   -0.5033    1.2229 C.2       1 <0>        -0.0092
      5 C4          0.1264   -1.3835    2.0645 C.2       1 <0>        -0.1702
      6 S1          1.4142   -1.6112    3.2844 S.3       1 <0>         0.1153
      7 C5          2.6137   -0.5123    2.5423 C.2       1 <0>         0.1718
      8 N1          1.9522   -0.0933    1.4727 N.2       1 <0>        -0.5055
      9 C6          3.9780   -0.1677    2.9967 C.ar      1 <0>        -0.0102
     10 C7          4.7551    0.7291    2.2626 C.ar      1 <0>        -0.0563
     11 C8          6.0285    1.0470    2.6918 C.ar      1 <0>        -0.0263
     12 C9          6.5345    0.4779    3.8480 C.ar      1 <0>        -0.0716
     13 C10         5.7682   -0.4125    4.5805 C.ar      1 <0>        -0.0211
     14 C11         4.4912   -0.7337    4.1643 C.ar      1 <0>        -0.0763
     15 Cl1         6.4114   -1.1216    6.0287 Cl        1 <0>        -0.0288
     16 Cl2         6.9970    2.1621    1.7795 Cl        1 <0>        -0.0327
     17 N2          0.6897   -0.4778   -1.2066 N.4       1 <0>        -0.6344
     18 H2          1.0039    1.9031    0.0027 H         1 <0>         0.0902
     19 H3         -0.5459    1.8868   -0.8726 H         1 <0>         0.0873
     20 H4         -0.5289    1.8773    0.9072 H         1 <0>         0.1042
     21 H5         -0.8587   -1.8231    2.0112 H         1 <0>         0.2132
     22 H6          4.3615    1.1734    1.3603 H         1 <0>         0.1516
     23 H7          7.5311    0.7293    4.1796 H         1 <0>         0.1578
     24 H8          3.8925   -1.4247    4.7391 H         1 <0>         0.1465
     25 H9          0.2017   -0.1436   -2.0240 H         1 <0>         0.4381
     26 H10         1.6363   -0.1286   -1.2138 H         1 <0>         0.4382
     27 H11         0.7033   -1.4867   -1.2121 H         1 <0>         0.4350
@<TRIPOS>BOND
     1    1    2 1
     2    1   18 1
     3    1   19 1
     4    1   20 1
     5    2    3 1
     6    2    4 1
     7    2   17 1
     8    4    8 1
     9    4    5 2
    10    5    6 1
    11    5   21 1
    12    6    7 1
    13    7    8 2
    14    7    9 1
    15    9   14 ar
    16    9   10 ar
    17   10   11 ar
    18   10   22 1
    19   11   12 ar
    20   11   16 1
    21   12   13 ar
    22   12   23 1
    23   13   14 ar
    24   13   15 1
    25   14   24 1
    26   17   25 1
    27   17   26 1
    28   17   27 1
@<TRIPOS>MOLECULE
ZINC11568377
   24    25     0     0     0
SMALL
USER_CHARGES
[2-(2-chlorophenyl)thiazol-4-yl]methanamine
@<TRIPOS>ATOM
      1 C1         -3.5517    3.0671    0.0371 C.ar      1 <0>        -0.1096
      2 C2         -3.3417    4.4350    0.0433 C.ar      1 <0>        -0.0714
      3 C3         -2.0557    4.9435    0.0386 C.ar      1 <0>        -0.1118
      4 C4         -0.9716    4.0876    0.0344 C.ar      1 <0>         0.0100
      5 C5         -1.1773    2.7065    0.0227 C.ar      1 <0>        -0.0342
      6 C6         -2.4782    2.2010    0.0270 C.ar      1 <0>        -0.0748
      7 C7         -0.0222    1.7837    0.0118 C.2       1 <0>         0.1751
      8 N1          1.2746    2.0591    0.0009 N.2       1 <0>        -0.4877
      9 C8          2.1739    1.1034   -0.0128 C.2       1 <0>        -0.0150
     10 C9          1.7799   -0.1976   -0.0160 C.2       1 <0>        -0.1810
     11 S1          0.0021   -0.0041    0.0020 S.3       1 <0>         0.0999
     12 C10         3.6410    1.4478   -0.0244 C.3       1 <0>         0.0837
     13 Cl1         0.6423    4.7271    0.0364 Cl        1 <0>        -0.0394
     14 H1         -4.5587    2.6768    0.0404 H         1 <0>         0.1454
     15 H2         -4.1860    5.1084    0.0516 H         1 <0>         0.1462
     16 H3         -1.8986    6.0121    0.0429 H         1 <0>         0.1470
     17 H4         -2.6440    1.1338    0.0221 H         1 <0>         0.1377
     18 H5          2.3755   -1.0985   -0.0270 H         1 <0>         0.2106
     19 H6          3.8078    2.3473    0.5682 H         1 <0>         0.1473
     20 H7          4.2115    0.6218    0.4003 H         1 <0>         0.1463
     21 H8          3.5197    2.4026   -1.8443 H         1 <0>         0.4401
     22 H9          5.0586    1.9174   -1.4416 H         1 <0>         0.4420
     23 N2          4.0729    1.6617   -1.4170 N.4       1 <0>        -0.6441
     24 H10         3.9385    0.7939   -1.9491 H         1 <0>         0.4376
@<TRIPOS>BOND
     1    1    6 ar
     2    1    2 ar
     3    1   14 1
     4    2    3 ar
     5    2   15 1
     6    3    4 ar
     7    3   16 1
     8    4    5 ar
     9    4   13 1
    10    5    6 ar
    11    5    7 1
    12    6   17 1
    13    7   11 1
    14    7    8 2
    15    8    9 1
    16    9   10 2
    17    9   12 1
    18   10   11 1
    19   10   18 1
    20   12   19 1
    21   12   20 1
    22   12   23 1
    23   21   23 1
    24   22   23 1
    25   23   24 1
@<TRIPOS>MOLECULE
ZINC52859450
   24    25     0     0     0
SMALL
USER_CHARGES

@<TRIPOS>ATOM
      1 C1         -0.0167    1.3803    0.0096 C.ar      1 <0>        -0.0484
      2 C2          1.1678    2.0944    0.0022 C.ar      1 <0>        -0.1319
      3 C3          2.3789    1.4289   -0.0135 C.ar      1 <0>         0.1336
      4 C4          2.4042    0.0314   -0.0212 C.ar      1 <0>        -0.0575
      5 C5          1.2052   -0.6818   -0.0131 C.ar      1 <0>        -0.0320
      6 C6          0.0021   -0.0041    0.0020 C.ar      1 <0>        -0.0500
      7 Cl1        -1.4907   -0.8902    0.0121 Cl        1 <0>        -0.0367
      8 C7          3.6957   -0.6878   -0.0384 C.2       1 <0>         0.1633
      9 N1          3.9323   -1.9921   -0.0533 N.2       1 <0>        -0.4997
     10 C8          5.1578   -2.4621   -0.0675 C.2       1 <0>        -0.0164
     11 C9          6.2123   -1.6044   -0.0671 C.2       1 <0>        -0.1879
     12 S1          5.3592   -0.0326   -0.0527 S.3       1 <0>         0.1392
     13 C10         5.3952   -3.9502   -0.0837 C.3       1 <0>         0.0798
     14 N2          5.3635   -4.4661    1.2914 N.4       1 <0>        -0.6351
     15 F1          3.5353    2.1273   -0.0216 F         1 <0>        -0.1185
     16 H1         -0.9605    1.9050    0.0260 H         1 <0>         0.1582
     17 H2          1.1462    3.1741    0.0082 H         1 <0>         0.1624
     18 H3          1.2179   -1.7617   -0.0194 H         1 <0>         0.1557
     19 H4          7.2717   -1.8140   -0.0773 H         1 <0>         0.2121
     20 H5          4.6168   -4.4360   -0.6721 H         1 <0>         0.1478
     21 H6          6.3690   -4.1579   -0.5273 H         1 <0>         0.1491
     22 H7          4.4621   -4.2738    1.7020 H         1 <0>         0.4383
     23 H8          5.5225   -5.4625    1.2805 H         1 <0>         0.4408
     24 H9          6.0841   -4.0164    1.8360 H         1 <0>         0.4339
@<TRIPOS>BOND
     1    1    6 ar
     2    1    2 ar
     3    1   16 1
     4    2    3 ar
     5    2   17 1
     6    3    4 ar
     7    3   15 1
     8    4    5 ar
     9    4    8 1
    10    5    6 ar
    11    5   18 1
    12    6    7 1
    13    8   12 1
    14    8    9 2
    15    9   10 1
    16   10   11 2
    17   10   13 1
    18   11   12 1
    19   11   19 1
    20   13   14 1
    21   13   20 1
    22   13   21 1
    23   14   22 1
    24   14   23 1
    25   14   24 1
@<TRIPOS>MOLECULE
ZINC41009996
   30    31     0     0     0
SMALL
USER_CHARGES

@<TRIPOS>ATOM
      1 C1         -0.0187    1.5258    0.0104 C.3       1 <0>        -0.1902
      2 C2          0.0021   -0.0041    0.0020 C.3       1 <0>        -0.0096
      3 N1          0.6897   -0.4778   -1.2066 N.4       1 <0>        -0.5092
      4 C3          0.7096   -1.9467   -1.2147 C.3       1 <0>         0.0777
      5 C4          1.4150   -2.4327   -2.4546 C.2       1 <0>        -0.0110
      6 C5          2.7377   -2.7435   -2.4078 C.2       1 <0>        -0.1759
      7 S1          3.0196   -3.2412   -4.1024 S.3       1 <0>         0.1133
      8 C6          1.3497   -2.9817   -4.6861 C.2       1 <0>         0.1720
      9 N2          0.7523   -2.5617   -3.5798 N.2       1 <0>        -0.4990
     10 C7          0.7857   -3.1855   -6.0378 C.ar      1 <0>        -0.0107
     11 C8         -0.5606   -2.9128   -6.2834 C.ar      1 <0>        -0.0552
     12 C9         -1.0817   -3.1051   -7.5477 C.ar      1 <0>        -0.0262
     13 C10        -0.2712   -3.5676   -8.5704 C.ar      1 <0>        -0.0715
     14 C11         1.0652   -3.8399   -8.3327 C.ar      1 <0>        -0.0215
     15 C12         1.5989   -3.6459   -7.0739 C.ar      1 <0>        -0.0763
     16 Cl1         2.0737   -4.4199   -9.6213 Cl        1 <0>        -0.0294
     17 Cl2        -2.7564   -2.7670   -7.8551 Cl        1 <0>        -0.0326
     18 H1          1.0039    1.9031    0.0027 H         1 <0>         0.0806
     19 H2         -0.5459    1.8868   -0.8726 H         1 <0>         0.0808
     20 H3         -0.5289    1.8773    0.9072 H         1 <0>         0.1084
     21 H4          0.5293   -0.3651    0.8851 H         1 <0>         0.1328
     22 H5         -1.0205   -0.3814    0.0098 H         1 <0>         0.1329
     23 H6          0.2017   -0.1436   -2.0240 H         1 <0>         0.4311
     24 H7          1.2368   -2.3077   -0.3316 H         1 <0>         0.1469
     25 H8         -0.3130   -2.3239   -1.2069 H         1 <0>         0.1460
     26 H9          3.4272   -2.7012   -1.5777 H         1 <0>         0.2130
     27 H10        -1.1938   -2.5524   -5.4862 H         1 <0>         0.1526
     28 H11        -0.6832   -3.7168   -9.5575 H         1 <0>         0.1577
     29 H12         2.6427   -3.8540   -6.8908 H         1 <0>         0.1464
     30 H13         1.6363   -0.1286   -1.2138 H         1 <0>         0.4261
@<TRIPOS>BOND
     1    1    2 1
     2    1   18 1
     3    1   19 1
     4    1   20 1
     5    2    3 1
     6    2   21 1
     7    2   22 1
     8    3    4 1
     9    3   23 1
    10    3   30 1
    11    4    5 1
    12    4   24 1
    13    4   25 1
    14    5    9 1
    15    5    6 2
    16    6    7 1
    17    6   26 1
    18    7    8 1
    19    8    9 2
    20    8   10 1
    21   10   15 ar
    22   10   11 ar
    23   11   12 ar
    24   11   27 1
    25   12   13 ar
    26   12   17 1
    27   13   14 ar
    28   13   28 1
    29   14   15 ar
    30   14   16 1
    31   15   29 1
@<TRIPOS>MOLECULE
ZINC40420367
   33    34     0     0     0
SMALL
USER_CHARGES

@<TRIPOS>ATOM
      1 C1         -0.0187    1.5258    0.0104 C.3       1 <0>        -0.1565
      2 C2          0.0021   -0.0041    0.0020 C.3       1 <0>        -0.1516
      3 C3          0.7182   -0.4975   -1.2568 C.3       1 <0>        -0.0103
      4 N1          0.7381   -1.9663   -1.2649 N.4       1 <0>        -0.5086
      5 C4          1.4257   -2.4401   -2.4735 C.3       1 <0>         0.0783
      6 C5          1.4462   -3.9469   -2.4818 C.2       1 <0>        -0.0102
      7 C6          0.4881   -4.6372   -3.1556 C.2       1 <0>        -0.1800
      8 S1          1.0003   -6.3189   -2.8267 S.3       1 <0>         0.1020
      9 C7          2.4305   -5.9199   -1.8306 C.2       1 <0>         0.1796
     10 N2          2.3918   -4.5949   -1.8432 N.2       1 <0>        -0.5040
     11 C8          3.3987   -6.8243   -1.1738 C.ar      1 <0>        -0.0274
     12 C9          4.4542   -6.2980   -0.4275 C.ar      1 <0>        -0.0609
     13 C10         5.3544   -7.1466    0.1830 C.ar      1 <0>        -0.1046
     14 C11         5.2131   -8.5171    0.0571 C.ar      1 <0>        -0.0762
     15 C12         4.1685   -9.0461   -0.6817 C.ar      1 <0>        -0.0343
     16 C13         3.2574   -8.2071   -1.2928 C.ar      1 <0>        -0.0791
     17 Cl1         3.9997  -10.7671   -0.8345 Cl        1 <0>        -0.0440
     18 H1          1.0039    1.9031    0.0027 H         1 <0>         0.0677
     19 H2         -0.5459    1.8868   -0.8726 H         1 <0>         0.0675
     20 H3         -0.5289    1.8773    0.9072 H         1 <0>         0.0777
     21 H4          0.5293   -0.3651    0.8851 H         1 <0>         0.0863
     22 H5         -1.0205   -0.3814    0.0098 H         1 <0>         0.0861
     23 H6          0.1910   -0.1364   -2.1398 H         1 <0>         0.1332
     24 H7          1.7408   -0.1202   -1.2645 H         1 <0>         0.1333
     25 H8          1.2261   -2.3006   -0.4474 H         1 <0>         0.4311
     26 H9          0.8985   -2.0790   -3.3565 H         1 <0>         0.1462
     27 H10         2.4483   -2.0628   -2.4812 H         1 <0>         0.1454
     28 H11        -0.3504   -4.2714   -3.7297 H         1 <0>         0.2115
     29 H12         4.5662   -5.2285   -0.3284 H         1 <0>         0.1416
     30 H13         6.1716   -6.7401    0.7604 H         1 <0>         0.1474
     31 H14         5.9208   -9.1770    0.5367 H         1 <0>         0.1471
     32 H15         2.4402   -8.6204   -1.8653 H         1 <0>         0.1392
     33 H16        -0.2085   -2.3156   -1.2577 H         1 <0>         0.4262
@<TRIPOS>BOND
     1    1    2 1
     2    1   18 1
     3    1   19 1
     4    1   20 1
     5    2    3 1
     6    2   21 1
     7    2   22 1
     8    3    4 1
     9    3   23 1
    10    3   24 1
    11    4    5 1
    12    4   25 1
    13    4   33 1
    14    5    6 1
    15    5   26 1
    16    5   27 1
    17    6   10 1
    18    6    7 2
    19    7    8 1
    20    7   28 1
    21    8    9 1
    22    9   10 2
    23    9   11 1
    24   11   16 ar
    25   11   12 ar
    26   12   13 ar
    27   12   29 1
    28   13   14 ar
    29   13   30 1
    30   14   15 ar
    31   14   31 1
    32   15   16 ar
    33   15   17 1
    34   16   32 1
@<TRIPOS>MOLECULE
ZINC62792828
   27    28     0     0     0
SMALL
USER_CHARGES

@<TRIPOS>ATOM
      1 C1         -0.0178    1.4648    0.0101 C.3       1 <0>        -0.0469
      2 N1          0.0021   -0.0041    0.0020 N.4       1 <0>        -0.5086
      3 C2          0.7126   -0.4907    1.1921 C.3       1 <0>         0.0767
      4 C3          0.7330   -1.9975    1.1838 C.2       1 <0>        -0.0114
      5 C4          1.8058   -2.6610    0.6774 C.2       1 <0>        -0.1775
      6 S1          1.2911   -4.3562    0.9221 S.3       1 <0>         0.1066
      7 C5         -0.2926   -3.9971    1.6703 C.2       1 <0>         0.1771
      8 N2         -0.2828   -2.6714    1.6705 N.2       1 <0>        -0.5026
      9 C6         -1.3309   -4.9279    2.1617 C.ar      1 <0>        -0.0388
     10 C7         -2.5129   -4.4306    2.7129 C.ar      1 <0>        -0.0306
     11 C8         -3.4788   -5.3026    3.1696 C.ar      1 <0>        -0.1410
     12 C9         -3.2777   -6.6709    3.0826 C.ar      1 <0>         0.1477
     13 C10        -2.1052   -7.1709    2.5365 C.ar      1 <0>        -0.0765
     14 C11        -1.1349   -6.3064    2.0708 C.ar      1 <0>        -0.0494
     15 Cl1        -1.8604   -8.8863    2.4316 Cl        1 <0>        -0.0218
     16 F1         -4.2270   -7.5208    3.5319 F         1 <0>        -0.1105
     17 H1          1.0047    1.8421    0.0024 H         1 <0>         0.1253
     18 H2         -0.5450    1.8259   -0.8730 H         1 <0>         0.1280
     19 H3         -0.5280    1.8163    0.9069 H         1 <0>         0.1255
     20 H4         -0.9445   -0.3533    0.0092 H         1 <0>         0.4332
     21 H5          1.7352   -0.1134    1.1844 H         1 <0>         0.1466
     22 H6          0.2024   -0.1392    2.0889 H         1 <0>         0.1459
     23 H7          2.7165   -2.2722    0.2462 H         1 <0>         0.2122
     24 H8         -2.6708   -3.3644    2.7819 H         1 <0>         0.1525
     25 H9         -4.3936   -4.9184    3.5961 H         1 <0>         0.1606
     26 H10        -0.2240   -6.6963    1.6412 H         1 <0>         0.1492
     27 H11         0.4744   -0.3295   -0.8281 H         1 <0>         0.4286
@<TRIPOS>BOND
     1    1    2 1
     2    1   17 1
     3    1   18 1
     4    1   19 1
     5    2    3 1
     6    2   20 1
     7    2   27 1
     8    3    4 1
     9    3   21 1
    10    3   22 1
    11    4    8 1
    12    4    5 2
    13    5    6 1
    14    5   23 1
    15    6    7 1
    16    7    8 2
    17    7    9 1
    18    9   14 ar
    19    9   10 ar
    20   10   11 ar
    21   10   24 1
    22   11   12 ar
    23   11   25 1
    24   12   13 ar
    25   12   16 1
    26   13   14 ar
    27   13   15 1
    28   14   26 1
@<TRIPOS>MOLECULE
ZINC35154829
   24    25     0     0     0
SMALL
USER_CHARGES

@<TRIPOS>ATOM
      1 C1         -0.0169    1.3914    0.0097 C.ar      1 <0>        -0.0531
      2 C2          1.1695    2.0947    0.0021 C.ar      1 <0>        -0.1500
      3 C3          2.3789    1.4182   -0.0135 C.ar      1 <0>         0.1400
      4 C4          2.4033    0.0326   -0.0212 C.ar      1 <0>        -0.1556
      5 C5          1.2228   -0.6804   -0.0137 C.ar      1 <0>        -0.0327
      6 C6          0.0021   -0.0041    0.0020 C.ar      1 <0>        -0.0562
      7 C7         -1.2666   -0.7632    0.0105 C.2       1 <0>         0.1848
      8 N1         -1.4625   -2.0744    0.0109 N.2       1 <0>        -0.5091
      9 C8         -2.6728   -2.5824    0.0199 C.2       1 <0>        -0.0129
     10 C9         -3.7535   -1.7580    0.0291 C.2       1 <0>        -0.1822
     11 S1         -2.9497   -0.1603    0.0311 S.3       1 <0>         0.0988
     12 C10        -2.8638   -4.0772    0.0196 C.3       1 <0>         0.0794
     13 N2         -2.8166   -4.5766   -1.3611 N.4       1 <0>        -0.6350
     14 F1          3.5381    2.1119   -0.0217 F         1 <0>        -0.1236
     15 H1         -0.9588    1.9196    0.0260 H         1 <0>         0.1394
     16 H2          1.1559    3.1746    0.0081 H         1 <0>         0.1522
     17 H3          3.3485   -0.4898   -0.0334 H         1 <0>         0.1505
     18 H4          1.2429   -1.7602   -0.0204 H         1 <0>         0.1454
     19 H5         -4.8058   -2.0005    0.0368 H         1 <0>         0.2112
     20 H6         -2.0705   -4.5450    0.6025 H         1 <0>         0.1475
     21 H7         -3.8305   -4.3200    0.4609 H         1 <0>         0.1485
     22 H8         -3.5510   -4.1435   -1.9007 H         1 <0>         0.4338
     23 H9         -1.9218   -4.3518   -1.7696 H         1 <0>         0.4384
     24 H10        -2.9445   -5.5774   -1.3613 H         1 <0>         0.4406
@<TRIPOS>BOND
     1    1    6 ar
     2    1    2 ar
     3    1   15 1
     4    2    3 ar
     5    2   16 1
     6    3    4 ar
     7    3   14 1
     8    4    5 ar
     9    4   17 1
    10    5    6 ar
    11    5   18 1
    12    6    7 1
    13    7   11 1
    14    7    8 2
    15    8    9 1
    16    9   10 2
    17    9   12 1
    18   10   11 1
    19   10   19 1
    20   12   13 1
    21   12   20 1
    22   12   21 1
    23   13   22 1
    24   13   23 1
    25   13   24 1
@<TRIPOS>MOLECULE
ZINC40999806
   24    25     0     0     0
SMALL
USER_CHARGES

@<TRIPOS>ATOM
      1 C1         -0.0167    1.3791    0.0096 C.ar      1 <0>        -0.0620
      2 C2          1.1678    2.0936    0.0022 C.ar      1 <0>        -0.0978
      3 C3          2.3785    1.4294   -0.0134 C.ar      1 <0>        -0.0109
      4 C4          2.4051    0.0332   -0.0211 C.ar      1 <0>        -0.0183
      5 C5          1.2054   -0.6815   -0.0130 C.ar      1 <0>         0.0165
      6 C6          0.0021   -0.0041    0.0020 C.ar      1 <0>        -0.1037
      7 Cl1         1.2266   -2.4173   -0.0230 Cl        1 <0>        -0.0257
      8 C7          3.6972   -0.6848   -0.0382 C.2       1 <0>         0.1501
      9 N1          3.9348   -1.9890   -0.0531 N.2       1 <0>        -0.4795
     10 C8          5.1607   -2.4580   -0.0676 C.2       1 <0>        -0.0209
     11 C9          6.2145   -1.5994   -0.0676 C.2       1 <0>        -0.2001
     12 S1          5.3602   -0.0283   -0.0524 S.3       1 <0>         0.1461
     13 C10         5.3994   -3.9459   -0.0838 C.3       1 <0>         0.0791
     14 N2          5.3685   -4.4617    1.2913 N.4       1 <0>        -0.6353
     15 Cl2         3.8638    2.3281   -0.0239 Cl        1 <0>        -0.0168
     16 H1         -0.9606    1.9037    0.0260 H         1 <0>         0.1572
     17 H2          1.1457    3.1733    0.0081 H         1 <0>         0.1561
     18 H3         -0.9265   -0.5555    0.0082 H         1 <0>         0.1546
     19 H4          7.2741   -1.8082   -0.0779 H         1 <0>         0.2072
     20 H5          4.6212   -4.4323   -0.6719 H         1 <0>         0.1455
     21 H6          6.3732   -4.1528   -0.5277 H         1 <0>         0.1477
     22 H7          4.4671   -4.2702    1.7023 H         1 <0>         0.4378
     23 H8          5.5284   -5.4579    1.2805 H         1 <0>         0.4396
     24 H9          6.0889   -4.0114    1.8357 H         1 <0>         0.4336
@<TRIPOS>BOND
     1    1    6 ar
     2    1    2 ar
     3    1   16 1
     4    2    3 ar
     5    2   17 1
     6    3    4 ar
     7    3   15 1
     8    4    5 ar
     9    4    8 1
    10    5    6 ar
    11    5    7 1
    12    6   18 1
    13    8   12 1
    14    8    9 2
    15    9   10 1
    16   10   11 2
    17   10   13 1
    18   11   12 1
    19   11   19 1
    20   13   14 1
    21   13   20 1
    22   13   21 1
    23   14   22 1
    24   14   23 1
    25   14   24 1
@<TRIPOS>MOLECULE
ZINC06789277
   27    28     0     0     0
SMALL
USER_CHARGES
[2-(m-tolyl)thiazol-4-yl]methanamine
@<TRIPOS>ATOM
      1 C1          2.4904    1.0404   -0.0151 C.3       1 <0>        -0.1226
      2 C2          1.1780    1.7809    0.0004 C.ar      1 <0>        -0.0779
      3 C3         -0.0126    1.0758    0.0080 C.ar      1 <0>        -0.0845
      4 C4         -1.2215    1.7481    0.0173 C.ar      1 <0>        -0.1153
      5 C5         -1.2470    3.1277    0.0298 C.ar      1 <0>        -0.0694
      6 C6         -0.0501    3.8446    0.0223 C.ar      1 <0>        -0.0404
      7 C7          1.1662    3.1603    0.0074 C.ar      1 <0>        -0.0866
      8 C8         -0.0702    5.3232    0.0294 C.2       1 <0>         0.1890
      9 N1         -1.1058    6.1505    0.0432 N.2       1 <0>        -0.5107
     10 C9         -0.9383    7.4520    0.0481 C.2       1 <0>        -0.0128
     11 C10         0.3173    7.9735    0.0391 C.2       1 <0>        -0.1862
     12 S1          1.2961    6.4766    0.0298 S.3       1 <0>         0.0925
     13 C11        -2.1356    8.3670    0.0634 C.3       1 <0>         0.0839
     14 H1          2.7974    0.8666   -1.0465 H         1 <0>         0.0787
     15 H2          3.2489    1.6345    0.4946 H         1 <0>         0.0716
     16 H3          2.3741    0.0843    0.4953 H         1 <0>         0.0756
     17 H4          0.0021   -0.0041    0.0020 H         1 <0>         0.1356
     18 H5         -2.1473    1.1919    0.0187 H         1 <0>         0.1371
     19 H6         -2.1915    3.6514    0.0417 H         1 <0>         0.1341
     20 H7          2.0961    3.7095    0.0012 H         1 <0>         0.1281
     21 H8          0.6354    9.0055    0.0415 H         1 <0>         0.2103
     22 H9         -2.9300    7.9161    0.6580 H         1 <0>         0.1478
     23 H10        -1.8547    9.3257    0.4995 H         1 <0>         0.1461
     24 H11        -2.8163    7.6947   -1.7595 H         1 <0>         0.4401
     25 H12        -3.4136    9.1855   -1.3277 H         1 <0>         0.4421
     26 N2         -2.5901    8.5859   -1.3211 N.4       1 <0>        -0.6438
     27 H13        -1.8401    9.0409   -1.8546 H         1 <0>         0.4376
@<TRIPOS>BOND
     1    1    2 1
     2    1   14 1
     3    1   15 1
     4    1   16 1
     5    2    7 ar
     6    2    3 ar
     7    3    4 ar
     8    3   17 1
     9    4    5 ar
    10    4   18 1
    11    5    6 ar
    12    5   19 1
    13    6    7 ar
    14    6    8 1
    15    7   20 1
    16    8   12 1
    17    8    9 2
    18    9   10 1
    19   10   11 2
    20   10   13 1
    21   11   12 1
    22   11   21 1
    23   13   22 1
    24   13   23 1
    25   13   26 1
    26   24   26 1
    27   25   26 1
    28   26   27 1
@<TRIPOS>MOLECULE
ZINC43393113
   30    31     0     0     0
SMALL
USER_CHARGES

@<TRIPOS>ATOM
      1 C1         -0.0184    1.5028    0.0103 C.3       1 <0>        -0.1198
      2 C2          0.0021   -0.0041    0.0020 C.ar      1 <0>        -0.0792
      3 C3          0.0058   -0.6877   -1.2008 C.ar      1 <0>        -0.0869
      4 C4          0.0245   -2.0710   -1.2171 C.ar      1 <0>        -0.0730
      5 C5          0.0401   -2.7777   -0.0322 C.ar      1 <0>        -0.0928
      6 C6          0.0369   -2.0941    1.1844 C.ar      1 <0>        -0.0355
      7 C7          0.0228   -0.6988    1.1938 C.ar      1 <0>        -0.0714
      8 C8          0.0530   -2.8452    2.4581 C.2       1 <0>         0.1896
      9 N1          0.0475   -2.3902    3.7031 N.2       1 <0>        -0.5109
     10 C9          0.0639   -3.2095    4.7281 C.2       1 <0>        -0.0127
     11 C10         0.0869   -4.5531    4.5211 C.2       1 <0>        -0.1856
     12 S1          0.0771   -4.6117    2.7336 S.3       1 <0>         0.0935
     13 C11         0.0577   -2.6621    6.1321 C.3       1 <0>         0.0796
     14 N2          1.4330   -2.3476    6.5412 N.4       1 <0>        -0.6348
     15 C12         0.0274   -2.8075   -2.5318 C.3       1 <0>        -0.1221
     16 H1          1.0042    1.8801    0.0026 H         1 <0>         0.0770
     17 H2         -0.5455    1.8639   -0.8728 H         1 <0>         0.0745
     18 H3         -0.5286    1.8543    0.9071 H         1 <0>         0.0703
     19 H4         -0.0064   -0.1392   -2.1310 H         1 <0>         0.1350
     20 H5          0.0543   -3.8575   -0.0462 H         1 <0>         0.1279
     21 H6          0.0241   -0.1639    2.1321 H         1 <0>         0.1338
     22 H7          0.1025   -5.3611    5.2376 H         1 <0>         0.2104
     23 H8         -0.5477   -1.7563    6.1662 H         1 <0>         0.1470
     24 H9         -0.3620   -3.4054    6.8100 H         1 <0>         0.1482
     25 H10         1.9934   -3.1861    6.5096 H         1 <0>         0.4337
     26 H11         1.8216   -1.6596    5.9137 H         1 <0>         0.4383
     27 H12         1.0556   -2.9711   -2.8544 H         1 <0>         0.0787
     28 H13        -0.4728   -3.7684   -2.4111 H         1 <0>         0.0717
     29 H14        -0.4986   -2.2157   -3.2809 H         1 <0>         0.0753
     30 H15         1.4289   -1.9811    7.4812 H         1 <0>         0.4402
@<TRIPOS>BOND
     1    1    2 1
     2    1   16 1
     3    1   17 1
     4    1   18 1
     5    2    7 ar
     6    2    3 ar
     7    3    4 ar
     8    3   19 1
     9    4    5 ar
    10    4   15 1
    11    5    6 ar
    12    5   20 1
    13    6    7 ar
    14    6    8 1
    15    7   21 1
    16    8   12 1
    17    8    9 2
    18    9   10 1
    19   10   11 2
    20   10   13 1
    21   11   12 1
    22   11   22 1
    23   13   14 1
    24   13   23 1
    25   13   24 1
    26   14   25 1
    27   14   26 1
    28   14   30 1
    29   15   27 1
    30   15   28 1
    31   15   29 1
@<TRIPOS>MOLECULE
ZINC70842613
   27    28     0     0     0
SMALL
USER_CHARGES

@<TRIPOS>ATOM
      1 C1         -0.0187    1.5258    0.0104 C.3       1 <0>        -0.1777
      2 C2          0.0021   -0.0041    0.0020 C.3       1 <0>         0.1173
      3 H1         -1.0205   -0.3814    0.0098 H         1 <0>         0.1541
      4 C3          0.7309   -0.5033    1.2229 C.2       1 <0>        -0.0092
      5 C4          0.1264   -1.3835    2.0643 C.2       1 <0>        -0.1709
      6 S1          1.4145   -1.6118    3.2839 S.3       1 <0>         0.1105
      7 C5          2.6141   -0.5131    2.5419 C.2       1 <0>         0.1735
      8 N1          1.9524   -0.0932    1.4727 N.2       1 <0>        -0.5068
      9 C6          3.9788   -0.1696    2.9957 C.ar      1 <0>        -0.0222
     10 C7          4.7560    0.7277    2.2615 C.ar      1 <0>        -0.0500
     11 C8          6.0282    1.0452    2.6893 C.ar      1 <0>        -0.0973
     12 C9          6.5354    0.4758    3.8451 C.ar      1 <0>        -0.0055
     13 C10         5.7692   -0.4160    4.5783 C.ar      1 <0>        -0.0316
     14 C11         4.4922   -0.7366    4.1625 C.ar      1 <0>        -0.0673
     15 Cl1         6.4131   -1.1256    6.0259 Cl        1 <0>        -0.0217
     16 Cl2         8.1376    0.8803    4.3773 Cl        1 <0>        -0.0211
     17 N2          0.6897   -0.4778   -1.2066 N.4       1 <0>        -0.6342
     18 H2          1.0039    1.9031    0.0027 H         1 <0>         0.0901
     19 H3         -0.5459    1.8868   -0.8726 H         1 <0>         0.0870
     20 H4         -0.5289    1.8773    0.9072 H         1 <0>         0.1041
     21 H5         -0.8588   -1.8227    2.0112 H         1 <0>         0.2126
     22 H6          4.3620    1.1724    1.3596 H         1 <0>         0.1501
     23 H7          6.6302    1.7391    2.1214 H         1 <0>         0.1572
     24 H8          3.8937   -1.4283    4.7368 H         1 <0>         0.1482
     25 H9          0.7033   -1.4867   -1.2121 H         1 <0>         0.4350
     26 H10         0.2017   -0.1436   -2.0240 H         1 <0>         0.4380
     27 H11         1.6363   -0.1286   -1.2138 H         1 <0>         0.4380
@<TRIPOS>BOND
     1    1    2 1
     2    1   18 1
     3    1   19 1
     4    1   20 1
     5    2    3 1
     6    2    4 1
     7    2   17 1
     8    4    8 1
     9    4    5 2
    10    5    6 1
    11    5   21 1
    12    6    7 1
    13    7    8 2
    14    7    9 1
    15    9   14 ar
    16    9   10 ar
    17   10   11 ar
    18   10   22 1
    19   11   12 ar
    20   11   23 1
    21   12   13 ar
    22   12   16 1
    23   13   14 ar
    24   13   15 1
    25   14   24 1
    26   17   25 1
    27   17   26 1
    28   17   27 1
@<TRIPOS>MOLECULE
ZINC41010052
   33    34     0     0     0
SMALL
USER_CHARGES

@<TRIPOS>ATOM
      1 C1         -0.0187    1.5258    0.0104 C.3       1 <0>        -0.1566
      2 C2          0.0021   -0.0041    0.0020 C.3       1 <0>        -0.1516
      3 C3          0.7182   -0.4975   -1.2568 C.3       1 <0>        -0.0104
      4 N1          0.7381   -1.9663   -1.2649 N.4       1 <0>        -0.5088
      5 C4          1.4257   -2.4401   -2.4735 C.3       1 <0>         0.0778
      6 C5          1.4462   -3.9469   -2.4818 C.2       1 <0>        -0.0109
      7 C6          0.4880   -4.6372   -3.1555 C.2       1 <0>        -0.1758
      8 S1          0.9999   -6.3189   -2.8260 S.3       1 <0>         0.1134
      9 C7          2.4300   -5.9199   -1.8298 C.2       1 <0>         0.1720
     10 N2          2.3918   -4.5949   -1.8432 N.2       1 <0>        -0.4989
     11 C8          3.3976   -6.8243   -1.1722 C.ar      1 <0>        -0.0106
     12 C9          4.4529   -6.2981   -0.4262 C.ar      1 <0>        -0.0552
     13 C10         5.3534   -7.1476    0.1855 C.ar      1 <0>        -0.0262
     14 C11         5.2108   -8.5189    0.0597 C.ar      1 <0>        -0.0715
     15 C12         4.1658   -9.0469   -0.6792 C.ar      1 <0>        -0.0216
     16 C13         3.2557   -8.2073   -1.2907 C.ar      1 <0>        -0.0763
     17 Cl1         3.9954  -10.7677   -0.8318 Cl        1 <0>        -0.0294
     18 Cl2         6.6672   -6.4948    1.1136 Cl        1 <0>        -0.0327
     19 H1          1.0039    1.9031    0.0027 H         1 <0>         0.0677
     20 H2         -0.5459    1.8868   -0.8726 H         1 <0>         0.0675
     21 H3         -0.5289    1.8773    0.9072 H         1 <0>         0.0778
     22 H4          0.5293   -0.3651    0.8851 H         1 <0>         0.0865
     23 H5         -1.0205   -0.3814    0.0098 H         1 <0>         0.0862
     24 H6          0.1910   -0.1364   -2.1398 H         1 <0>         0.1334
     25 H7          1.7408   -0.1202   -1.2645 H         1 <0>         0.1336
     26 H8          1.2261   -2.3006   -0.4474 H         1 <0>         0.4313
     27 H9          0.8985   -2.0790   -3.3565 H         1 <0>         0.1470
     28 H10         2.4483   -2.0628   -2.4812 H         1 <0>         0.1461
     29 H11        -0.3501   -4.2714   -3.7301 H         1 <0>         0.2130
     30 H12         4.5653   -5.2285   -0.3277 H         1 <0>         0.1526
     31 H13         5.9178   -9.1795    0.5396 H         1 <0>         0.1578
     32 H14         2.4381   -8.6204   -1.8628 H         1 <0>         0.1464
     33 H15        -0.2085   -2.3156   -1.2577 H         1 <0>         0.4263
@<TRIPOS>BOND
     1    1    2 1
     2    1   19 1
     3    1   20 1
     4    1   21 1
     5    2    3 1
     6    2   22 1
     7    2   23 1
     8    3    4 1
     9    3   24 1
    10    3   25 1
    11    4    5 1
    12    4   26 1
    13    4   33 1
    14    5    6 1
    15    5   27 1
    16    5   28 1
    17    6   10 1
    18    6    7 2
    19    7    8 1
    20    7   29 1
    21    8    9 1
    22    9   10 2
    23    9   11 1
    24   11   16 ar
    25   11   12 ar
    26   12   13 ar
    27   12   30 1
    28   13   14 ar
    29   13   18 1
    30   14   15 ar
    31   14   31 1
    32   15   16 ar
    33   15   17 1
    34   16   32 1
@<TRIPOS>MOLECULE
ZINC71576075
   28    29     0     0     0
SMALL
USER_CHARGES

@<TRIPOS>ATOM
      1 C1         -0.0173    1.4248    0.0099 C.3       1 <0>         0.0188
      2 O1          0.0021   -0.0041    0.0020 O.3       1 <0>        -0.2944
      3 C2          0.6057   -0.6070   -1.0555 C.ar      1 <0>         0.1776
      4 C3          1.1724    0.1642   -2.0615 C.ar      1 <0>        -0.1961
      5 C4          1.7861   -0.4435   -3.1358 C.ar      1 <0>        -0.0347
      6 C5          1.8377   -1.8365   -3.2122 C.ar      1 <0>        -0.0738
      7 C6          1.2671   -2.6092   -2.1994 C.ar      1 <0>        -0.0150
      8 C7          0.6593   -1.9938   -1.1247 C.ar      1 <0>        -0.0781
      9 Cl1        -0.0447   -2.9530    0.1394 Cl        1 <0>        -0.0334
     10 C8          2.4946   -2.4916   -4.3630 C.2       1 <0>         0.1926
     11 N1          2.6438   -3.7830   -4.6236 N.2       1 <0>        -0.5120
     12 C9          3.2620   -4.1924   -5.7069 C.2       1 <0>        -0.0106
     13 C10         3.7627   -3.2842   -6.5852 C.2       1 <0>        -0.1844
     14 S1          3.2950   -1.7559   -5.7826 S.3       1 <0>         0.0938
     15 C11         3.4168   -5.6671   -5.9759 C.3       1 <0>         0.0790
     16 N2          4.6067   -6.1702   -5.2767 N.4       1 <0>        -0.6350
     17 H1          1.0053    1.8021    0.0021 H         1 <0>         0.0646
     18 H2         -0.5445    1.7859   -0.8732 H         1 <0>         0.0649
     19 H3         -0.5275    1.7763    0.9067 H         1 <0>         0.1129
     20 H4          1.1321    1.2418   -2.0023 H         1 <0>         0.1531
     21 H5          2.2263    0.1574   -3.9178 H         1 <0>         0.1386
     22 H6          1.3050   -3.6871   -2.2550 H         1 <0>         0.1521
     23 H7          4.2925   -3.4417   -7.5131 H         1 <0>         0.2106
     24 H8          2.5338   -6.1963   -5.6176 H         1 <0>         0.1476
     25 H9          3.5287   -5.8311   -7.0477 H         1 <0>         0.1483
     26 H10         5.4240   -5.6802   -5.6084 H         1 <0>         0.4337
     27 H11         4.5031   -6.0183   -4.2846 H         1 <0>         0.4386
     28 H12         4.7102   -7.1576   -5.4568 H         1 <0>         0.4405
@<TRIPOS>BOND
     1    1    2 1
     2    1   17 1
     3    1   18 1
     4    1   19 1
     5    2    3 1
     6    3    8 ar
     7    3    4 ar
     8    4    5 ar
     9    4   20 1
    10    5    6 ar
    11    5   21 1
    12    6    7 ar
    13    6   10 1
    14    7    8 ar
    15    7   22 1
    16    8    9 1
    17   10   14 1
    18   10   11 2
    19   11   12 1
    20   12   13 2
    21   12   15 1
    22   13   14 1
    23   13   23 1
    24   15   16 1
    25   15   24 1
    26   15   25 1
    27   16   26 1
    28   16   27 1
    29   16   28 1
@<TRIPOS>MOLECULE
ZINC70842610
   27    28     0     0     0
SMALL
USER_CHARGES

@<TRIPOS>ATOM
      1 C1         -0.0187    1.5258    0.0104 C.3       1 <0>        -0.1753
      2 C2          0.0021   -0.0041    0.0020 C.3       1 <0>         0.1096
      3 H1          0.5123   -0.3556   -0.8948 H         1 <0>         0.1586
      4 C3          0.7309   -0.5033    1.2229 C.2       1 <0>         0.0393
      5 C4          0.1264   -1.3835    2.0643 C.2       1 <0>        -0.2563
      6 S1          1.4145   -1.6118    3.2839 S.3       1 <0>         0.1177
      7 C5          2.6141   -0.5131    2.5419 C.2       1 <0>         0.1877
      8 N1          1.9524   -0.0932    1.4727 N.2       1 <0>        -0.4935
      9 C6          3.9788   -0.1696    2.9957 C.ar      1 <0>        -0.0267
     10 C7          4.7560    0.7277    2.2615 C.ar      1 <0>        -0.0449
     11 C8          6.0282    1.0452    2.6893 C.ar      1 <0>        -0.0974
     12 C9          6.5354    0.4758    3.8451 C.ar      1 <0>        -0.0032
     13 C10         5.7692   -0.4160    4.5783 C.ar      1 <0>        -0.0332
     14 C11         4.4922   -0.7366    4.1625 C.ar      1 <0>        -0.0656
     15 Cl1         6.4131   -1.1256    6.0259 Cl        1 <0>        -0.0224
     16 Cl2         8.1376    0.8803    4.3773 Cl        1 <0>        -0.0209
     17 N2         -1.3761   -0.5125    0.0124 N.4       1 <0>        -0.6352
     18 H2          1.0039    1.9031    0.0027 H         1 <0>         0.1153
     19 H3         -0.5459    1.8868   -0.8726 H         1 <0>         0.0888
     20 H4         -0.5289    1.8773    0.9072 H         1 <0>         0.0810
     21 H5         -0.8588   -1.8227    2.0112 H         1 <0>         0.2001
     22 H6          4.3620    1.1724    1.3596 H         1 <0>         0.1533
     23 H7          6.6302    1.7391    2.1214 H         1 <0>         0.1585
     24 H8          3.8937   -1.4283    4.7368 H         1 <0>         0.1479
     25 H9         -1.8641   -0.1783   -0.8050 H         1 <0>         0.4446
     26 H10        -1.3624   -1.5214    0.0069 H         1 <0>         0.4369
     27 H11        -1.8484   -0.1871    0.8426 H         1 <0>         0.4353
@<TRIPOS>BOND
     1    1    2 1
     2    1   18 1
     3    1   19 1
     4    1   20 1
     5    2    3 1
     6    2    4 1
     7    2   17 1
     8    4    8 1
     9    4    5 2
    10    5    6 1
    11    5   21 1
    12    6    7 1
    13    7    8 2
    14    7    9 1
    15    9   14 ar
    16    9   10 ar
    17   10   11 ar
    18   10   22 1
    19   11   12 ar
    20   11   23 1
    21   12   13 ar
    22   12   16 1
    23   13   14 ar
    24   13   15 1
    25   14   24 1
    26   17   25 1
    27   17   26 1
    28   17   27 1
@<TRIPOS>MOLECULE
ZINC40420002
   33    34     0     0     0
SMALL
USER_CHARGES

@<TRIPOS>ATOM
      1 C1         -0.0187    1.5258    0.0104 C.3       1 <0>        -0.1843
      2 C2          0.0021   -0.0041    0.0020 C.3       1 <0>         0.0244
      3 C3          0.7421   -0.5109    1.2415 C.3       1 <0>        -0.1855
      4 N1         -1.3761   -0.5125    0.0124 N.4       1 <0>        -0.5067
      5 C4         -1.3591   -1.9758   -0.1163 C.3       1 <0>         0.0742
      6 C5         -2.7729   -2.4974   -0.1056 C.2       1 <0>        -0.0086
      7 C6         -3.4212   -2.7316   -1.2775 C.2       1 <0>        -0.1804
      8 S1         -4.9985   -3.3168   -0.6707 S.3       1 <0>         0.1012
      9 C7         -4.6232   -3.1859    1.0726 C.2       1 <0>         0.1793
     10 N2         -3.3785   -2.7315    1.0348 N.2       1 <0>        -0.5035
     11 C8         -5.4711   -3.5038    2.2416 C.ar      1 <0>        -0.0271
     12 C9         -4.9788   -3.3211    3.5347 C.ar      1 <0>        -0.0610
     13 C10        -5.7743   -3.6194    4.6216 C.ar      1 <0>        -0.1046
     14 C11        -7.0582   -4.0990    4.4324 C.ar      1 <0>        -0.0763
     15 C12        -7.5531   -4.2827    3.1526 C.ar      1 <0>        -0.0342
     16 C13        -6.7685   -3.9822    2.0564 C.ar      1 <0>        -0.0791
     17 Cl1        -9.1651   -4.8855    2.9252 Cl        1 <0>        -0.0441
     18 H1          1.0039    1.9031    0.0027 H         1 <0>         0.1080
     19 H2         -0.5459    1.8868   -0.8726 H         1 <0>         0.0816
     20 H3         -0.5289    1.8773    0.9072 H         1 <0>         0.0814
     21 H4          0.5123   -0.3556   -0.8948 H         1 <0>         0.1405
     22 H5          0.7568   -1.6008    1.2356 H         1 <0>         0.0818
     23 H6          1.7647   -0.1336    1.2338 H         1 <0>         0.1068
     24 H7          0.2319   -0.1594    2.1383 H         1 <0>         0.0825
     25 H8         -1.8225   -0.2564    0.8803 H         1 <0>         0.4290
     26 H9         -0.8769   -2.2525   -1.0538 H         1 <0>         0.1459
     27 H10        -0.8062   -2.4075    0.7180 H         1 <0>         0.1466
     28 H11        -3.0788   -2.6002   -2.2933 H         1 <0>         0.2113
     29 H12        -3.9767   -2.9472    3.6842 H         1 <0>         0.1415
     30 H13        -5.3938   -3.4786    5.6225 H         1 <0>         0.1473
     31 H14        -7.6767   -4.3313    5.2867 H         1 <0>         0.1470
     32 H15        -7.1567   -4.1216    1.0583 H         1 <0>         0.1392
     33 H16        -1.8879   -0.1129   -0.7598 H         1 <0>         0.4261
@<TRIPOS>BOND
     1    1    2 1
     2    1   18 1
     3    1   19 1
     4    1   20 1
     5    2    3 1
     6    2    4 1
     7    2   21 1
     8    3   22 1
     9    3   23 1
    10    3   24 1
    11    4    5 1
    12    4   25 1
    13    4   33 1
    14    5    6 1
    15    5   26 1
    16    5   27 1
    17    6   10 1
    18    6    7 2
    19    7    8 1
    20    7   28 1
    21    8    9 1
    22    9   10 2
    23    9   11 1
    24   11   16 ar
    25   11   12 ar
    26   12   13 ar
    27   12   29 1
    28   13   14 ar
    29   13   30 1
    30   14   15 ar
    31   14   31 1
    32   15   16 ar
    33   15   17 1
    34   16   32 1
@<TRIPOS>MOLECULE
ZINC40999785
   36    37     0     0     0
SMALL
USER_CHARGES

@<TRIPOS>ATOM
      1 C1         -0.0187    1.5258    0.0104 C.3       1 <0>        -0.1413
      2 C2          0.0021   -0.0041    0.0020 C.3       1 <0>        -0.0374
      3 C3          0.7421   -0.5109    1.2415 C.3       1 <0>        -0.1419
      4 C4         -1.4333   -0.5336    0.0129 C.3       1 <0>        -0.1500
      5 C5          0.7074   -0.4901   -1.2379 C.ar      1 <0>        -0.0281
      6 C6          0.0327   -1.2848   -2.1474 C.ar      1 <0>        -0.1187
      7 C7          0.6726   -1.7327   -3.2847 C.ar      1 <0>        -0.0784
      8 C8          2.0033   -1.3824   -3.5166 C.ar      1 <0>        -0.0524
      9 C9          2.6782   -0.5805   -2.5953 C.ar      1 <0>        -0.0580
     10 C10         2.0252   -0.1349   -1.4645 C.ar      1 <0>        -0.1183
     11 C11         2.6954   -1.8592   -4.7332 C.2       1 <0>         0.1919
     12 N1          3.9420   -1.6458   -5.1302 N.2       1 <0>        -0.5132
     13 C12         4.3959   -2.1524   -6.2524 C.2       1 <0>        -0.0119
     14 C13         3.5809   -2.9125   -7.0312 C.2       1 <0>        -0.1867
     15 S1          2.0786   -2.8855   -6.0611 S.3       1 <0>         0.0901
     16 C14         5.8180   -1.8916   -6.6775 C.3       1 <0>         0.0795
     17 N2          5.8884   -0.6098   -7.3917 N.4       1 <0>        -0.6348
     18 H1          1.0039    1.9031    0.0027 H         1 <0>         0.0585
     19 H2         -0.5459    1.8868   -0.8726 H         1 <0>         0.0583
     20 H3         -0.5289    1.8773    0.9072 H         1 <0>         0.0658
     21 H4          0.2319   -0.1594    2.1383 H         1 <0>         0.0658
     22 H5          0.7568   -1.6008    1.2356 H         1 <0>         0.0588
     23 H6          1.7647   -0.1336    1.2338 H         1 <0>         0.0587
     24 H7         -1.9605   -0.1726   -0.8702 H         1 <0>         0.0610
     25 H8         -1.4185   -1.6235    0.0069 H         1 <0>         0.0613
     26 H9         -1.9435   -0.1821    0.9097 H         1 <0>         0.0655
     27 H10        -0.9971   -1.5555   -1.9665 H         1 <0>         0.1419
     28 H11         0.1448   -2.3533   -3.9937 H         1 <0>         0.1281
     29 H12         3.7083   -0.3062   -2.7689 H         1 <0>         0.1339
     30 H13         2.5451    0.4895   -0.7529 H         1 <0>         0.1350
     31 H14         3.7852   -3.4006   -7.9726 H         1 <0>         0.2099
     32 H15         6.4591   -1.8526   -5.7969 H         1 <0>         0.1469
     33 H16         6.1532   -2.6932   -7.3357 H         1 <0>         0.1480
     34 H17         5.2950   -0.6460   -8.2069 H         1 <0>         0.4337
     35 H18         5.5781    0.1321   -6.7823 H         1 <0>         0.4383
     36 H19         6.8406   -0.4353   -7.6763 H         1 <0>         0.4401
@<TRIPOS>BOND
     1    1    2 1
     2    1   18 1
     3    1   19 1
     4    1   20 1
     5    2    3 1
     6    2    4 1
     7    2    5 1
     8    3   21 1
     9    3   22 1
    10    3   23 1
    11    4   24 1
    12    4   25 1
    13    4   26 1
    14    5   10 ar
    15    5    6 ar
    16    6    7 ar
    17    6   27 1
    18    7    8 ar
    19    7   28 1
    20    8    9 ar
    21    8   11 1
    22    9   10 ar
    23    9   29 1
    24   10   30 1
    25   11   15 1
    26   11   12 2
    27   12   13 1
    28   13   14 2
    29   13   16 1
    30   14   15 1
    31   14   31 1
    32   16   17 1
    33   16   32 1
    34   16   33 1
    35   17   34 1
    36   17   35 1
    37   17   36 1
@<TRIPOS>MOLECULE
ZINC40419387
   30    31     0     0     0
SMALL
USER_CHARGES

@<TRIPOS>ATOM
      1 C1         -0.0187    1.5258    0.0104 C.3       1 <0>        -0.1490
      2 C2          0.0021   -0.0041    0.0020 C.3       1 <0>        -0.0964
      3 C3         -1.4117   -0.5257    0.0127 C.ar      1 <0>        -0.0400
      4 C4         -2.0484   -0.7651    1.2175 C.ar      1 <0>        -0.1152
      5 C5         -3.3429   -1.2422    1.2342 C.ar      1 <0>        -0.0782
      6 C6         -4.0099   -1.4833    0.0324 C.ar      1 <0>        -0.0523
      7 C7         -3.3621   -1.2397   -1.1793 C.ar      1 <0>        -0.0575
      8 C8         -2.0693   -0.7576   -1.1822 C.ar      1 <0>        -0.1207
      9 C9         -5.3972   -1.9951    0.0429 C.2       1 <0>         0.1910
     10 N1         -6.1928   -2.2902   -0.9755 N.2       1 <0>        -0.5129
     11 C10        -7.4104   -2.7391   -0.7811 C.2       1 <0>        -0.0120
     12 C11        -7.8758   -2.9090    0.4850 C.2       1 <0>        -0.1863
     13 S1         -6.4505   -2.3901    1.4327 S.3       1 <0>         0.0909
     14 C12        -8.2916   -3.0654   -1.9593 C.3       1 <0>         0.0795
     15 N2         -8.9664   -1.8443   -2.4191 N.4       1 <0>        -0.6348
     16 H1          1.0039    1.9031    0.0027 H         1 <0>         0.0656
     17 H2         -0.5459    1.8868   -0.8726 H         1 <0>         0.0571
     18 H3         -0.5289    1.8773    0.9072 H         1 <0>         0.0577
     19 H4          0.5123   -0.3556   -0.8948 H         1 <0>         0.0798
     20 H5          0.5293   -0.3651    0.8851 H         1 <0>         0.0803
     21 H6         -1.5309   -0.5785    2.1468 H         1 <0>         0.1374
     22 H7         -3.8387   -1.4291    2.1753 H         1 <0>         0.1286
     23 H8         -3.8728   -1.4247   -2.1128 H         1 <0>         0.1344
     24 H9         -1.5684   -0.5645   -2.1193 H         1 <0>         0.1357
     25 H10        -8.8380   -3.2629    0.8244 H         1 <0>         0.2100
     26 H11        -7.6825   -3.4703   -2.7675 H         1 <0>         0.1470
     27 H12        -9.0374   -3.8027   -1.6620 H         1 <0>         0.1481
     28 H13        -9.5564   -2.0628   -3.2079 H         1 <0>         0.4402
     29 H14        -9.5303   -1.4696   -1.6710 H         1 <0>         0.4337
     30 H15        -8.2761   -1.1618   -2.6943 H         1 <0>         0.4383
@<TRIPOS>BOND
     1    1    2 1
     2    1   16 1
     3    1   17 1
     4    1   18 1
     5    2    3 1
     6    2   19 1
     7    2   20 1
     8    3    8 ar
     9    3    4 ar
    10    4    5 ar
    11    4   21 1
    12    5    6 ar
    13    5   22 1
    14    6    7 ar
    15    6    9 1
    16    7    8 ar
    17    7   23 1
    18    8   24 1
    19    9   13 1
    20    9   10 2
    21   10   11 1
    22   11   12 2
    23   11   14 1
    24   12   13 1
    25   12   25 1
    26   14   15 1
    27   14   26 1
    28   14   27 1
    29   15   28 1
    30   15   29 1
    31   15   30 1
@<TRIPOS>MOLECULE
ZINC40419376
   33    34     0     0     0
SMALL
USER_CHARGES

@<TRIPOS>ATOM
      1 C1         -0.0187    1.5258    0.0104 C.3       1 <0>        -0.1476
      2 C2          0.0021   -0.0041    0.0020 C.3       1 <0>        -0.0659
      3 C3         -1.4333   -0.5336    0.0129 C.3       1 <0>        -0.1480
      4 C4          0.7074   -0.4901   -1.2379 C.ar      1 <0>        -0.0344
      5 C5          0.2190   -0.1490   -2.4865 C.ar      1 <0>        -0.1123
      6 C6          0.8604   -0.5903   -3.6256 C.ar      1 <0>        -0.0787
      7 C7          2.0041   -1.3823   -3.5162 C.ar      1 <0>        -0.0521
      8 C8          2.4916   -1.7228   -2.2537 C.ar      1 <0>        -0.0574
      9 C9          1.8439   -1.2706   -1.1225 C.ar      1 <0>        -0.1206
     10 C10         2.6962   -1.8592   -4.7327 C.2       1 <0>         0.1914
     11 N1          3.7794   -2.6154   -4.8427 N.2       1 <0>        -0.5130
     12 C11         4.2628   -2.9467   -6.0168 C.2       1 <0>        -0.0119
     13 C12         3.6493   -2.5117   -7.1494 C.2       1 <0>        -0.1864
     14 S1          2.2930   -1.5776   -6.4518 S.3       1 <0>         0.0906
     15 C13         5.4963   -3.8075   -6.1096 C.3       1 <0>         0.0795
     16 N2          6.6928   -2.9607   -6.0126 N.4       1 <0>        -0.6348
     17 H1          1.0039    1.9031    0.0027 H         1 <0>         0.0575
     18 H2         -0.5459    1.8868   -0.8726 H         1 <0>         0.0590
     19 H3         -0.5289    1.8773    0.9072 H         1 <0>         0.0655
     20 H4          0.5293   -0.3651    0.8851 H         1 <0>         0.0845
     21 H5         -1.9605   -0.1726   -0.8702 H         1 <0>         0.0591
     22 H6         -1.4185   -1.6235    0.0069 H         1 <0>         0.0581
     23 H7         -1.9435   -0.1821    0.9097 H         1 <0>         0.0656
     24 H8         -0.6665    0.4637   -2.5698 H         1 <0>         0.1369
     25 H9          0.4779   -0.3237   -4.5998 H         1 <0>         0.1283
     26 H10         3.3761   -2.3357   -2.1623 H         1 <0>         0.1343
     27 H11         2.2227   -1.5296   -0.1449 H         1 <0>         0.1356
     28 H12         3.9071   -2.6855   -8.1836 H         1 <0>         0.2100
     29 H13         5.4964   -4.5313   -5.2946 H         1 <0>         0.1469
     30 H14         5.5006   -4.3346   -7.0636 H         1 <0>         0.1480
     31 H15         6.6927   -2.2907   -6.7670 H         1 <0>         0.4337
     32 H16         6.6888   -2.4728   -5.1294 H         1 <0>         0.4383
     33 H17         7.5187   -3.5370   -6.0747 H         1 <0>         0.4402
@<TRIPOS>BOND
     1    1    2 1
     2    1   17 1
     3    1   18 1
     4    1   19 1
     5    2    3 1
     6    2    4 1
     7    2   20 1
     8    3   21 1
     9    3   22 1
    10    3   23 1
    11    4    9 ar
    12    4    5 ar
    13    5    6 ar
    14    5   24 1
    15    6    7 ar
    16    6   25 1
    17    7    8 ar
    18    7   10 1
    19    8    9 ar
    20    8   26 1
    21    9   27 1
    22   10   14 1
    23   10   11 2
    24   11   12 1
    25   12   13 2
    26   12   15 1
    27   13   14 1
    28   13   28 1
    29   15   16 1
    30   15   29 1
    31   15   30 1
    32   16   31 1
    33   16   32 1
    34   16   33 1
@<TRIPOS>MOLECULE
ZINC40999797
   34    36     0     0     0
SMALL
USER_CHARGES

@<TRIPOS>ATOM
      1 C1         -0.0167    1.3791    0.0096 C.ar      1 <0>        -0.1047
      2 C2          1.1686    2.0923    0.0021 C.ar      1 <0>        -0.1177
      3 C3          2.3774    1.4267   -0.0134 C.ar      1 <0>        -0.1015
      4 C4          2.4025    0.0330   -0.0211 C.ar      1 <0>        -0.0699
      5 C5          1.2049   -0.6804   -0.0130 C.ar      1 <0>        -0.1018
      6 C6          0.0021   -0.0041    0.0020 C.ar      1 <0>        -0.1183
      7 C7          3.6981   -0.6880   -0.0382 C.ar      1 <0>         0.0036
      8 C8          4.8947    0.0289   -0.0410 C.ar      1 <0>        -0.1122
      9 C9          6.0982   -0.6396   -0.0574 C.ar      1 <0>        -0.0757
     10 C10         6.1208   -2.0361   -0.0708 C.ar      1 <0>        -0.0502
     11 C11         4.9221   -2.7530   -0.0676 C.ar      1 <0>        -0.0549
     12 C12         3.7196   -2.0827   -0.0459 C.ar      1 <0>        -0.1177
     13 C13         7.4119   -2.7545   -0.0889 C.2       1 <0>         0.1896
     14 N1          7.6488   -4.0590   -0.1088 N.2       1 <0>        -0.5122
     15 C14         8.8739   -4.5286   -0.1229 C.2       1 <0>        -0.0118
     16 C15         9.9287   -3.6705   -0.1173 C.2       1 <0>        -0.1863
     17 S1          9.0753   -2.0988   -0.0978 S.3       1 <0>         0.0922
     18 C16         9.1116   -6.0166   -0.1449 C.3       1 <0>         0.0795
     19 N2          9.0777   -6.5382    1.2280 N.4       1 <0>        -0.6349
     20 H1         -0.9603    1.9042    0.0260 H         1 <0>         0.1281
     21 H2          1.1480    3.1721    0.0081 H         1 <0>         0.1292
     22 H3          3.3022    1.9845   -0.0199 H         1 <0>         0.1275
     23 H4          1.2184   -1.7603   -0.0192 H         1 <0>         0.1268
     24 H5         -0.9264   -0.5557    0.0082 H         1 <0>         0.1288
     25 H6          4.8771    1.1087   -0.0306 H         1 <0>         0.1404
     26 H7          7.0246   -0.0844   -0.0602 H         1 <0>         0.1308
     27 H8          4.9385   -3.8328   -0.0783 H         1 <0>         0.1368
     28 H9          2.7927   -2.6370   -0.0393 H         1 <0>         0.1389
     29 H10        10.9881   -3.8799   -0.1268 H         1 <0>         0.2100
     30 H11         8.3342   -6.5001   -0.7365 H         1 <0>         0.1470
     31 H12        10.0860   -6.2224   -0.5878 H         1 <0>         0.1480
     32 H13         8.1757   -6.3477    1.6380 H         1 <0>         0.4383
     33 H14         9.2369   -7.5345    1.2133 H         1 <0>         0.4402
     34 H15         9.7974   -6.0907    1.7757 H         1 <0>         0.4337
@<TRIPOS>BOND
     1    1    6 ar
     2    1    2 ar
     3    1   20 1
     4    2    3 ar
     5    2   21 1
     6    3    4 ar
     7    3   22 1
     8    4    5 ar
     9    4    7 1
    10    5    6 ar
    11    5   23 1
    12    6   24 1
    13    7   12 ar
    14    7    8 ar
    15    8    9 ar
    16    8   25 1
    17    9   10 ar
    18    9   26 1
    19   10   11 ar
    20   10   13 1
    21   11   12 ar
    22   11   27 1
    23   12   28 1
    24   13   17 1
    25   13   14 2
    26   14   15 1
    27   15   16 2
    28   15   18 1
    29   16   17 1
    30   16   29 1
    31   18   19 1
    32   18   30 1
    33   18   31 1
    34   19   32 1
    35   19   33 1
    36   19   34 1
@<TRIPOS>MOLECULE
ZINC40999762
   30    32     0     0     0
SMALL
USER_CHARGES

@<TRIPOS>ATOM
      1 C1         -0.0164    1.3571    0.0095 C.ar      1 <0>        -0.0951
      2 C2          1.1682    2.0913    0.0021 C.ar      1 <0>        -0.1083
      3 C3          2.3779    1.4681   -0.0132 C.ar      1 <0>        -0.1004
      4 C4          2.4369    0.0628   -0.0213 C.ar      1 <0>        -0.0580
      5 C5          3.6673   -0.6114   -0.0365 C.ar      1 <0>        -0.0525
      6 C6          3.6849   -1.9957   -0.0437 C.ar      1 <0>        -0.0395
      7 C7          2.4826   -2.7251   -0.0359 C.ar      1 <0>        -0.0806
      8 C8          1.2832   -2.0898   -0.0211 C.ar      1 <0>        -0.0965
      9 C9          1.2315   -0.6839   -0.0134 C.ar      1 <0>        -0.0305
     10 C10         0.0021   -0.0041    0.0020 C.ar      1 <0>        -0.1122
     11 C11         4.9775   -2.7125   -0.0602 C.2       1 <0>         0.1881
     12 N1          5.2163   -4.0166   -0.0747 N.2       1 <0>        -0.5099
     13 C12         6.4420   -4.4845   -0.0890 C.2       1 <0>        -0.0119
     14 C13         7.4956   -3.6249   -0.0892 C.2       1 <0>        -0.1851
     15 S1          6.6399   -2.0544   -0.0741 S.3       1 <0>         0.0910
     16 C14         6.6818   -5.9723   -0.1048 C.3       1 <0>         0.0795
     17 N2          6.6513   -6.4877    1.2705 N.4       1 <0>        -0.6349
     18 H1         -0.9634    1.8760    0.0259 H         1 <0>         0.1319
     19 H2          1.1255    3.1704    0.0083 H         1 <0>         0.1319
     20 H3          3.2880    2.0495   -0.0195 H         1 <0>         0.1333
     21 H4          4.5929   -0.0550   -0.0429 H         1 <0>         0.1334
     22 H5          2.5141   -3.8046   -0.0420 H         1 <0>         0.1341
     23 H6          0.3683   -2.6638   -0.0152 H         1 <0>         0.1392
     24 H7         -0.9244   -0.5590    0.0079 H         1 <0>         0.1349
     25 H8          8.5553   -3.8328   -0.0997 H         1 <0>         0.2104
     26 H9          5.9040   -6.4595   -0.6928 H         1 <0>         0.1472
     27 H10         7.6558   -6.1786   -0.5485 H         1 <0>         0.1481
     28 H11         6.8118   -7.4838    1.2600 H         1 <0>         0.4403
     29 H12         7.3713   -6.0367    1.8148 H         1 <0>         0.4337
     30 H13         5.7497   -6.2967    1.6813 H         1 <0>         0.4384
@<TRIPOS>BOND
     1    1   10 ar
     2    1    2 ar
     3    1   18 1
     4    2    3 ar
     5    2   19 1
     6    3    4 ar
     7    3   20 1
     8    4    9 ar
     9    4    5 ar
    10    5    6 ar
    11    5   21 1
    12    6    7 ar
    13    6   11 1
    14    7    8 ar
    15    7   22 1
    16    8    9 ar
    17    8   23 1
    18    9   10 ar
    19   10   24 1
    20   11   15 1
    21   11   12 2
    22   12   13 1
    23   13   14 2
    24   13   16 1
    25   14   15 1
    26   14   25 1
    27   16   17 1
    28   16   26 1
    29   16   27 1
    30   17   28 1
    31   17   29 1
    32   17   30 1
@<TRIPOS>MOLECULE
ZINC40999555
   24    25     0     0     0
SMALL
USER_CHARGES

@<TRIPOS>ATOM
      1 C1         -0.0167    1.3787    0.0096 C.ar      1 <0>        -0.0825
      2 C2          1.1668    2.0884    0.0021 C.ar      1 <0>        -0.0958
      3 C3          2.3854    1.4089   -0.0131 C.ar      1 <0>        -0.0121
      4 C4          2.3999    0.0136   -0.0207 C.ar      1 <0>        -0.1033
      5 C5          1.2084   -0.6861   -0.0131 C.ar      1 <0>         0.1041
      6 C6          0.0021   -0.0041    0.0020 C.ar      1 <0>        -0.1196
      7 F1          1.2195   -2.0371   -0.0208 F         1 <0>        -0.1277
      8 C7          3.6565    2.1644   -0.0217 C.2       1 <0>         0.1777
      9 N1          4.9029    1.7137   -0.0415 N.2       1 <0>        -0.5050
     10 C8          5.9251    2.5367   -0.0463 C.2       1 <0>        -0.0142
     11 C9          5.7137    3.8796   -0.0308 C.2       1 <0>        -0.1802
     12 S1          3.9260    3.9320   -0.0160 S.3       1 <0>         0.1087
     13 C10         7.3308    1.9941   -0.0684 C.3       1 <0>         0.0792
     14 N2          7.7607    1.6918    1.3034 N.4       1 <0>        -0.6350
     15 H1         -0.9599    1.9045    0.0260 H         1 <0>         0.1501
     16 H2          1.1498    3.1682    0.0077 H         1 <0>         0.1364
     17 H3          3.3399   -0.5180   -0.0328 H         1 <0>         0.1473
     18 H4         -0.9270   -0.5546    0.0079 H         1 <0>         0.1496
     19 H5          6.4274    4.6902   -0.0319 H         1 <0>         0.2123
     20 H6          7.3595    1.0836   -0.6671 H         1 <0>         0.1477
     21 H7          8.0000    2.7363   -0.5036 H         1 <0>         0.1491
     22 H8          7.7342    2.5346    1.8575 H         1 <0>         0.4338
     23 H9          7.1413    1.0047    1.7063 H         1 <0>         0.4385
     24 H10         8.7019    1.3286    1.2886 H         1 <0>         0.4408
@<TRIPOS>BOND
     1    1    6 ar
     2    1    2 ar
     3    1   15 1
     4    2    3 ar
     5    2   16 1
     6    3    4 ar
     7    3    8 1
     8    4    5 ar
     9    4   17 1
    10    5    6 ar
    11    5    7 1
    12    6   18 1
    13    8   12 1
    14    8    9 2
    15    9   10 1
    16   10   11 2
    17   10   13 1
    18   11   12 1
    19   11   19 1
    20   13   14 1
    21   13   20 1
    22   13   21 1
    23   14   22 1
    24   14   23 1
    25   14   24 1
@<TRIPOS>MOLECULE
ZINC41010020
   30    31     0     0     0
SMALL
USER_CHARGES

@<TRIPOS>ATOM
      1 C1         -0.0187    1.5258    0.0104 C.3       1 <0>        -0.1902
      2 C2          0.0021   -0.0041    0.0020 C.3       1 <0>        -0.0095
      3 N1         -1.3761   -0.5125    0.0124 N.4       1 <0>        -0.5091
      4 C3         -1.3562   -1.9814    0.0044 C.3       1 <0>         0.0780
      5 C4         -2.7700   -2.5030    0.0151 C.2       1 <0>        -0.0110
      6 C5         -3.3826   -2.8334   -1.1527 C.2       1 <0>        -0.1767
      7 S1         -4.9779   -3.3700   -0.5479 S.3       1 <0>         0.1086
      8 C6         -4.6555   -3.0964    1.1893 C.2       1 <0>         0.1736
      9 N2         -3.4099   -2.6442    1.1521 N.2       1 <0>        -0.5004
     10 C7         -5.5384   -3.3196    2.3542 C.ar      1 <0>        -0.0226
     11 C8         -5.0851   -3.0306    3.6423 C.ar      1 <0>        -0.0489
     12 C9         -5.9128   -3.2402    4.7255 C.ar      1 <0>        -0.0972
     13 C10        -7.1918   -3.7364    4.5375 C.ar      1 <0>        -0.0054
     14 C11        -7.6478   -4.0257    3.2615 C.ar      1 <0>        -0.0320
     15 C12        -6.8298   -3.8144    2.1693 C.ar      1 <0>        -0.0673
     16 Cl1        -9.2525   -4.6480    3.0349 Cl        1 <0>        -0.0223
     17 Cl2        -8.2278   -3.9975    5.9059 Cl        1 <0>        -0.0216
     18 H1          1.0039    1.9031    0.0027 H         1 <0>         0.1084
     19 H2         -0.5459    1.8868   -0.8726 H         1 <0>         0.0806
     20 H3         -0.5289    1.8773    0.9072 H         1 <0>         0.0808
     21 H4          0.5123   -0.3556   -0.8948 H         1 <0>         0.1327
     22 H5          0.5293   -0.3651    0.8851 H         1 <0>         0.1328
     23 H6         -1.8484   -0.1871    0.8426 H         1 <0>         0.4310
     24 H7         -0.8460   -2.3329   -0.8924 H         1 <0>         0.1465
     25 H8         -0.8290   -2.3425    0.8874 H         1 <0>         0.1458
     26 H9         -3.0095   -2.7850   -2.1650 H         1 <0>         0.2125
     27 H10        -4.0877   -2.6439    3.7906 H         1 <0>         0.1512
     28 H11        -5.5625   -3.0171    5.7224 H         1 <0>         0.1574
     29 H12        -7.1873   -4.0358    1.1745 H         1 <0>         0.1481
     30 H13        -1.8641   -0.1783   -0.8050 H         1 <0>         0.4262
@<TRIPOS>BOND
     1    1    2 1
     2    1   18 1
     3    1   19 1
     4    1   20 1
     5    2    3 1
     6    2   21 1
     7    2   22 1
     8    3    4 1
     9    3   23 1
    10    3   30 1
    11    4    5 1
    12    4   24 1
    13    4   25 1
    14    5    9 1
    15    5    6 2
    16    6    7 1
    17    6   26 1
    18    7    8 1
    19    8    9 2
    20    8   10 1
    21   10   15 ar
    22   10   11 ar
    23   11   12 ar
    24   11   27 1
    25   12   13 ar
    26   12   28 1
    27   13   14 ar
    28   13   17 1
    29   14   15 ar
    30   14   16 1
    31   15   29 1
@<TRIPOS>MOLECULE
ZINC41009957
   27    28     0     0     0
SMALL
USER_CHARGES

@<TRIPOS>ATOM
      1 C1         -0.0178    1.4648    0.0101 C.3       1 <0>        -0.0468
      2 N1          0.0021   -0.0041    0.0020 N.4       1 <0>        -0.5086
      3 C2          0.6897   -0.4778   -1.2066 C.3       1 <0>         0.0767
      4 C3          0.7101   -1.9847   -1.2149 C.2       1 <0>        -0.0171
      5 C4         -0.2479   -2.6749   -1.8886 C.2       1 <0>        -0.2009
      6 S1          0.2638   -4.3566   -1.5592 S.3       1 <0>         0.1465
      7 C5          1.6939   -3.9578   -0.5629 C.2       1 <0>         0.1553
      8 N2          1.6559   -2.6327   -0.5762 N.2       1 <0>        -0.4954
      9 C6          2.6614   -4.8622    0.0945 C.ar      1 <0>        -0.0117
     10 C7          3.7170   -4.3363    0.8408 C.ar      1 <0>        -0.0528
     11 C8          4.6163   -5.1848    1.4524 C.ar      1 <0>        -0.0973
     12 C9          4.4747   -6.5556    1.3279 C.ar      1 <0>        -0.0683
     13 C10         3.4310   -7.0853    0.5892 C.ar      1 <0>        -0.0286
     14 C11         2.5195   -6.2461   -0.0239 C.ar      1 <0>        -0.0190
     15 Cl1         1.2061   -6.9109   -0.9440 Cl        1 <0>        -0.0081
     16 Cl2         3.2624   -8.8065    0.4378 Cl        1 <0>        -0.0226
     17 H1          1.0047    1.8421    0.0024 H         1 <0>         0.1251
     18 H2         -0.5450    1.8259   -0.8730 H         1 <0>         0.1250
     19 H3         -0.5280    1.8163    0.9069 H         1 <0>         0.1275
     20 H4          0.4901   -0.3383    0.8195 H         1 <0>         0.4327
     21 H5          0.1625   -0.1167   -2.0897 H         1 <0>         0.1454
     22 H6          1.7123   -0.1005   -1.2143 H         1 <0>         0.1443
     23 H7         -1.0862   -2.3090   -2.4630 H         1 <0>         0.2077
     24 H8          3.8297   -3.2667    0.9391 H         1 <0>         0.1513
     25 H9          5.4334   -4.7781    2.0297 H         1 <0>         0.1547
     26 H10         5.1819   -7.2150    1.8089 H         1 <0>         0.1567
     27 H11        -0.9445   -0.3533    0.0092 H         1 <0>         0.4284
@<TRIPOS>BOND
     1    1    2 1
     2    1   17 1
     3    1   18 1
     4    1   19 1
     5    2    3 1
     6    2   20 1
     7    2   27 1
     8    3    4 1
     9    3   21 1
    10    3   22 1
    11    4    8 1
    12    4    5 2
    13    5    6 1
    14    5   23 1
    15    6    7 1
    16    7    8 2
    17    7    9 1
    18    9   14 ar
    19    9   10 ar
    20   10   11 ar
    21   10   24 1
    22   11   12 ar
    23   11   25 1
    24   12   13 ar
    25   12   26 1
    26   13   14 ar
    27   13   16 1
    28   14   15 1
@<TRIPOS>MOLECULE
ZINC41010101
   33    34     0     0     0
SMALL
USER_CHARGES

@<TRIPOS>ATOM
      1 C1         -0.0187    1.5258    0.0104 C.3       1 <0>        -0.1858
      2 C2          0.0021   -0.0041    0.0020 C.3       1 <0>         0.0239
      3 C3          0.7182   -0.4975   -1.2568 C.3       1 <0>        -0.1844
      4 N1          0.7126   -0.4907    1.1921 N.4       1 <0>        -0.5067
      5 C4         -0.0398   -0.1189    2.3978 C.3       1 <0>         0.0743
      6 C5          0.6890   -0.6181    3.6187 C.2       1 <0>        -0.0092
      7 C6          1.5343    0.2070    4.2919 C.2       1 <0>        -0.1763
      8 S1          2.0893   -0.8829    5.5969 S.3       1 <0>         0.1128
      9 C7          1.1376   -2.3142    5.1044 C.2       1 <0>         0.1718
     10 N2          0.5049   -1.8482    4.0369 N.2       1 <0>        -0.4986
     11 C8          1.0704   -3.6551    5.7242 C.ar      1 <0>        -0.0103
     12 C9          0.2572   -4.6435    5.1687 C.ar      1 <0>        -0.0553
     13 C10         0.1985   -5.8939    5.7518 C.ar      1 <0>        -0.0262
     14 C11         0.9446   -6.1677    6.8855 C.ar      1 <0>        -0.0716
     15 C12         1.7533   -5.1910    7.4412 C.ar      1 <0>        -0.0215
     16 C13         1.8245   -3.9387    6.8635 C.ar      1 <0>        -0.0763
     17 Cl1         2.6848   -5.5433    8.8631 Cl        1 <0>        -0.0295
     18 Cl2        -0.8131   -7.1248    5.0625 Cl        1 <0>        -0.0328
     19 H1          1.0039    1.9031    0.0027 H         1 <0>         0.0824
     20 H2         -0.5459    1.8868   -0.8726 H         1 <0>         0.1075
     21 H3         -0.5289    1.8773    0.9072 H         1 <0>         0.0815
     22 H4         -1.0205   -0.3814    0.0098 H         1 <0>         0.1410
     23 H5          1.7408   -0.1202   -1.2645 H         1 <0>         0.0814
     24 H6          0.7330   -1.5874   -1.2628 H         1 <0>         0.0820
     25 H7          0.1910   -0.1364   -2.1398 H         1 <0>         0.1081
     26 H8          0.7982   -1.4950    1.1455 H         1 <0>         0.4312
     27 H9         -0.1324    0.9660    2.4481 H         1 <0>         0.1473
     28 H10        -1.0328   -0.5668    2.3589 H         1 <0>         0.1460
     29 H11         1.7978    1.2354    4.0935 H         1 <0>         0.2127
     30 H12        -0.3255   -4.4310    4.2845 H         1 <0>         0.1526
     31 H13         0.8953   -7.1469    7.3383 H         1 <0>         0.1577
     32 H14         2.4594   -3.1790    7.2950 H         1 <0>         0.1464
     33 H15         1.6317   -0.0761    1.2281 H         1 <0>         0.4241
@<TRIPOS>BOND
     1    1    2 1
     2    1   19 1
     3    1   20 1
     4    1   21 1
     5    2    3 1
     6    2    4 1
     7    2   22 1
     8    3   23 1
     9    3   24 1
    10    3   25 1
    11    4    5 1
    12    4   26 1
    13    4   33 1
    14    5    6 1
    15    5   27 1
    16    5   28 1
    17    6   10 1
    18    6    7 2
    19    7    8 1
    20    7   29 1
    21    8    9 1
    22    9   10 2
    23    9   11 1
    24   11   16 ar
    25   11   12 ar
    26   12   13 ar
    27   12   30 1
    28   13   14 ar
    29   13   18 1
    30   14   15 ar
    31   14   31 1
    32   15   16 ar
    33   15   17 1
    34   16   32 1
@<TRIPOS>MOLECULE
ZINC40414411
   27    28     0     0     0
SMALL
USER_CHARGES

@<TRIPOS>ATOM
      1 C1         -0.0178    1.4648    0.0101 C.3       1 <0>        -0.0469
      2 N1          0.0021   -0.0041    0.0020 N.4       1 <0>        -0.5085
      3 C2          0.6897   -0.4778   -1.2066 C.3       1 <0>         0.0767
      4 C3          0.7101   -1.9847   -1.2149 C.2       1 <0>        -0.0107
      5 C4         -0.2479   -2.6749   -1.8886 C.2       1 <0>        -0.1809
      6 S1          0.2643   -4.3566   -1.5598 S.3       1 <0>         0.1000
      7 C5          1.6945   -3.9577   -0.5637 C.2       1 <0>         0.1807
      8 N2          1.6559   -2.6327   -0.5762 N.2       1 <0>        -0.5063
      9 C6          2.6627   -4.8622    0.0927 C.ar      1 <0>        -0.0389
     10 C7          3.7180   -4.3360    0.8391 C.ar      1 <0>        -0.0507
     11 C8          4.6179   -5.1846    1.4495 C.ar      1 <0>        -0.1113
     12 C9          4.4759   -6.5562    1.3226 C.ar      1 <0>        -0.0058
     13 C10         3.4310   -7.0841    0.5829 C.ar      1 <0>        -0.1060
     14 C11         2.5214   -6.2454   -0.0269 C.ar      1 <0>        -0.0710
     15 Cl1         5.6126   -7.6181    2.0932 Cl        1 <0>        -0.0431
     16 H1          1.0047    1.8421    0.0024 H         1 <0>         0.1253
     17 H2         -0.5450    1.8259   -0.8730 H         1 <0>         0.1252
     18 H3         -0.5280    1.8163    0.9069 H         1 <0>         0.1279
     19 H4          0.4901   -0.3383    0.8195 H         1 <0>         0.4332
     20 H5          0.1625   -0.1167   -2.0897 H         1 <0>         0.1461
     21 H6          1.7123   -0.1005   -1.2143 H         1 <0>         0.1453
     22 H7         -1.0862   -2.3090   -2.4630 H         1 <0>         0.2112
     23 H8          3.8301   -3.2664    0.9382 H         1 <0>         0.1444
     24 H9          5.4350   -4.7786    2.0273 H         1 <0>         0.1478
     25 H10         3.3257   -8.1546    0.4868 H         1 <0>         0.1494
     26 H11         1.7041   -6.6583   -0.5995 H         1 <0>         0.1385
     27 H12        -0.9445   -0.3533    0.0092 H         1 <0>         0.4285
@<TRIPOS>BOND
     1    1    2 1
     2    1   16 1
     3    1   17 1
     4    1   18 1
     5    2    3 1
     6    2   19 1
     7    2   27 1
     8    3    4 1
     9    3   20 1
    10    3   21 1
    11    4    8 1
    12    4    5 2
    13    5    6 1
    14    5   22 1
    15    6    7 1
    16    7    8 2
    17    7    9 1
    18    9   14 ar
    19    9   10 ar
    20   10   11 ar
    21   10   23 1
    22   11   12 ar
    23   11   24 1
    24   12   13 ar
    25   12   15 1
    26   13   14 ar
    27   13   25 1
    28   14   26 1
@<TRIPOS>MOLECULE
ZINC83251801
   25    26     0     0     0
SMALL
USER_CHARGES

@<TRIPOS>ATOM
      1 C1         -0.0167    1.3793    0.0096 C.ar      1 <0>        -0.0987
      2 C2          1.1684    2.0932    0.0021 C.ar      1 <0>        -0.1179
      3 C3          2.3774    1.4288   -0.0130 C.ar      1 <0>        -0.0915
      4 C4          2.4033    0.0336   -0.0208 C.ar      1 <0>        -0.0198
      5 C5          1.2044   -0.6806   -0.0131 C.ar      1 <0>        -0.0699
      6 C6          0.0021   -0.0041    0.0020 C.ar      1 <0>        -0.1205
      7 C7          3.6955   -0.6850   -0.0375 C.2       1 <0>         0.1584
      8 N1          3.9328   -1.9891   -0.0523 N.2       1 <0>        -0.4937
      9 C8          5.1581   -2.4586   -0.0660 C.2       1 <0>         0.0580
     10 C9          6.2126   -1.6003   -0.0651 C.2       1 <0>        -0.1777
     11 S1          5.3587   -0.0288   -0.0511 S.3       1 <0>         0.0163
     12 C10         5.3961   -3.9466   -0.0821 C.3       1 <0>         0.1288
     13 N2          5.3640   -4.4625    1.2929 N.3       1 <0>        -0.5339
     14 N3          5.5905   -5.8986    1.3160 N.3       1 <0>        -0.7010
     15 H1         -0.9605    1.9041    0.0260 H         1 <0>         0.1294
     16 H2          1.1469    3.1730    0.0078 H         1 <0>         0.1322
     17 H3          3.3018    1.9873   -0.0192 H         1 <0>         0.1270
     18 H4          1.2177   -1.7605   -0.0194 H         1 <0>         0.1352
     19 H5         -0.9265   -0.5556    0.0083 H         1 <0>         0.1318
     20 H6          7.2721   -1.8094   -0.0745 H         1 <0>         0.2007
     21 H7          4.6181   -4.4326   -0.6708 H         1 <0>         0.0578
     22 H8          6.3701   -4.1540   -0.5254 H         1 <0>         0.0878
     23 H9          4.4949   -4.2262    1.7476 H         1 <0>         0.3543
     24 H10         6.4597   -6.1350    0.8613 H         1 <0>         0.3518
     25 H11         5.5685   -6.2530    2.2605 H         1 <0>         0.3551
@<TRIPOS>BOND
     1    1    6 ar
     2    1    2 ar
     3    1   15 1
     4    2    3 ar
     5    2   16 1
     6    3    4 ar
     7    3   17 1
     8    4    5 ar
     9    4    7 1
    10    5    6 ar
    11    5   18 1
    12    6   19 1
    13    7   11 1
    14    7    8 2
    15    8    9 1
    16    9   10 2
    17    9   12 1
    18   10   11 1
    19   10   20 1
    20   12   13 1
    21   12   21 1
    22   12   22 1
    23   13   14 1
    24   13   23 1
    25   14   24 1
    26   14   25 1
@<TRIPOS>MOLECULE
ZINC40999754
   30    31     0     0     0
SMALL
USER_CHARGES

@<TRIPOS>ATOM
      1 C1         -0.0184    1.5028    0.0103 C.3       1 <0>        -0.1292
      2 C2          0.0021   -0.0041    0.0020 C.ar      1 <0>        -0.0460
      3 C3          0.0057   -0.6863   -1.2018 C.ar      1 <0>        -0.1193
      4 C4          0.0249   -2.0656   -1.2163 C.ar      1 <0>        -0.0633
      5 C5          0.0405   -2.7729   -0.0133 C.ar      1 <0>        -0.0488
      6 C6          0.0368   -2.0789    1.1972 C.ar      1 <0>        -0.0804
      7 C7          0.0229   -0.6991    1.1979 C.ar      1 <0>        -0.0814
      8 C8          0.0250    0.0522    2.5042 C.3       1 <0>        -0.1236
      9 C9          0.0606   -4.2514   -0.0214 C.2       1 <0>         0.1922
     10 N1          0.0722   -5.0870   -1.0504 N.2       1 <0>        -0.5129
     11 C10         0.0898   -6.3870   -0.8724 C.2       1 <0>        -0.0119
     12 C11         0.0964   -6.8982    0.3874 C.2       1 <0>        -0.1867
     13 S1          0.0837   -5.3936    1.3541 S.3       1 <0>         0.0901
     14 C12         0.1021   -7.3116   -2.0623 C.3       1 <0>         0.0796
     15 N2         -1.2747   -7.5349   -2.5232 N.4       1 <0>        -0.6348
     16 H1          1.0042    1.8801    0.0026 H         1 <0>         0.0817
     17 H2         -0.5455    1.8639   -0.8728 H         1 <0>         0.0747
     18 H3         -0.5286    1.8543    0.9071 H         1 <0>         0.0770
     19 H4         -0.0068   -0.1378   -2.1321 H         1 <0>         0.1364
     20 H5          0.0273   -2.5969   -2.1566 H         1 <0>         0.1341
     21 H6          0.0489   -2.6204    2.1315 H         1 <0>         0.1282
     22 H7         -1.0020    0.2194    2.8289 H         1 <0>         0.0784
     23 H8          0.5540   -0.5310    3.2579 H         1 <0>         0.0715
     24 H9          0.5246    1.0118    2.3707 H         1 <0>         0.0773
     25 H10         0.1097   -7.9276    0.7138 H         1 <0>         0.2100
     26 H11         0.6858   -6.8622   -2.8657 H         1 <0>         0.1469
     27 H12         0.5489   -8.2642   -1.7776 H         1 <0>         0.1480
     28 H13        -1.2665   -8.1541   -3.3199 H         1 <0>         0.4402
     29 H14        -1.8151   -7.9510   -1.7795 H         1 <0>         0.4337
     30 H15        -1.6884   -6.6532   -2.7868 H         1 <0>         0.4383
@<TRIPOS>BOND
     1    1    2 1
     2    1   16 1
     3    1   17 1
     4    1   18 1
     5    2    7 ar
     6    2    3 ar
     7    3    4 ar
     8    3   19 1
     9    4    5 ar
    10    4   20 1
    11    5    6 ar
    12    5    9 1
    13    6    7 ar
    14    6   21 1
    15    7    8 1
    16    8   22 1
    17    8   23 1
    18    8   24 1
    19    9   13 1
    20    9   10 2
    21   10   11 1
    22   11   12 2
    23   11   14 1
    24   12   13 1
    25   12   25 1
    26   14   15 1
    27   14   26 1
    28   14   27 1
    29   15   28 1
    30   15   29 1
    31   15   30 1
@<TRIPOS>MOLECULE
ZINC11956033
   27    28     0     0     0
SMALL
USER_CHARGES
2-[2-(3-chlorophenyl)thiazol-4-yl]ethanamine
@<TRIPOS>ATOM
      1 C1         -3.4918   -1.3828    0.0288 C.ar      1 <0>        -0.1054
      2 C2         -2.4414   -0.4879    0.0285 C.ar      1 <0>        -0.0647
      3 C3         -1.1278   -0.9580    0.0077 C.ar      1 <0>        -0.0190
      4 C4         -0.8846   -2.3321   -0.0020 C.ar      1 <0>        -0.0815
      5 C5         -1.9440   -3.2174    0.0033 C.ar      1 <0>        -0.0333
      6 C6         -3.2453   -2.7437    0.0187 C.ar      1 <0>        -0.0812
      7 Cl1        -1.6445   -4.9273   -0.0087 Cl        1 <0>        -0.0465
      8 C7          0.0021   -0.0041    0.0020 C.2       1 <0>         0.1691
      9 N1         -0.0159    1.3214    0.0093 N.2       1 <0>        -0.5079
     10 C8          1.0962    2.0180    0.0024 C.2       1 <0>         0.0397
     11 C9          2.2960    1.3786   -0.0125 C.2       1 <0>        -0.1929
     12 S1          1.7604   -0.3278   -0.0165 S.3       1 <0>         0.0683
     13 C10         1.0435    3.5240    0.0105 C.3       1 <0>        -0.0700
     14 C11         0.1873    4.0107   -1.1604 C.3       1 <0>         0.0014
     15 H1         -4.5089   -1.0196    0.0411 H         1 <0>         0.1453
     16 H2         -2.6356    0.5744    0.0409 H         1 <0>         0.1396
     17 H3          0.1300   -2.7022   -0.0133 H         1 <0>         0.1391
     18 H4         -4.0710   -3.4398    0.0231 H         1 <0>         0.1454
     19 H5          3.2954    1.7878   -0.0203 H         1 <0>         0.2043
     20 H6          0.6058    3.8672    0.9480 H         1 <0>         0.1018
     21 H7          2.0530    3.9234   -0.0869 H         1 <0>         0.1025
     22 H8          0.6249    3.6675   -2.0978 H         1 <0>         0.1339
     23 H9         -0.8222    3.6113   -1.0629 H         1 <0>         0.1399
     24 H10         1.0643    5.8732   -1.1768 H         1 <0>         0.4364
     25 H11        -0.4242    5.8251   -1.9169 H         1 <0>         0.4418
     26 N2          0.1247    5.4826   -1.1301 N.4       1 <0>        -0.6465
     27 H12        -0.3202    5.7836   -0.2550 H         1 <0>         0.4404
@<TRIPOS>BOND
     1    1    6 ar
     2    1    2 ar
     3    1   15 1
     4    2    3 ar
     5    2   16 1
     6    3    4 ar
     7    3    8 1
     8    4    5 ar
     9    4   17 1
    10    5    6 ar
    11    5    7 1
    12    6   18 1
    13    8   12 1
    14    8    9 2
    15    9   10 1
    16   10   11 2
    17   10   13 1
    18   11   12 1
    19   11   19 1
    20   13   14 1
    21   13   20 1
    22   13   21 1
    23   14   22 1
    24   14   23 1
    25   14   26 1
    26   24   26 1
    27   25   26 1
    28   26   27 1
@<TRIPOS>MOLECULE
ZINC70840108
   27    28     0     0     0
SMALL
USER_CHARGES

@<TRIPOS>ATOM
      1 C1         -0.0187    1.5258    0.0104 C.3       1 <0>        -0.1753
      2 C2          0.0021   -0.0041    0.0020 C.3       1 <0>         0.1096
      3 H1          0.5123   -0.3556   -0.8948 H         1 <0>         0.1585
      4 C3          0.7309   -0.5033    1.2229 C.2       1 <0>         0.0400
      5 C4          0.1265   -1.3833    2.0642 C.2       1 <0>        -0.2571
      6 S1          1.4141   -1.6112    3.2843 S.3       1 <0>         0.1154
      7 C5          2.6138   -0.5124    2.5425 C.2       1 <0>         0.1907
      8 N1          1.9525   -0.0932    1.4727 N.2       1 <0>        -0.4954
      9 C6          3.9782   -0.1685    2.9967 C.ar      1 <0>        -0.0425
     10 C7          4.7553    0.7288    2.2623 C.ar      1 <0>        -0.0267
     11 C8          6.0272    1.0469    2.6901 C.ar      1 <0>        -0.1411
     12 C9          6.5349    0.4772    3.8468 C.ar      1 <0>         0.1500
     13 C10         5.7677   -0.4153    4.5803 C.ar      1 <0>        -0.0777
     14 C11         4.4911   -0.7355    4.1639 C.ar      1 <0>        -0.0478
     15 Cl1         6.4110   -1.1252    6.0280 Cl        1 <0>        -0.0220
     16 F1          7.7817    0.7919    4.2611 F         1 <0>        -0.1100
     17 N2         -1.3761   -0.5125    0.0124 N.4       1 <0>        -0.6353
     18 H2          1.0039    1.9031    0.0027 H         1 <0>         0.1153
     19 H3         -0.5459    1.8868   -0.8726 H         1 <0>         0.0887
     20 H4         -0.5289    1.8773    0.9072 H         1 <0>         0.0809
     21 H5         -0.8587   -1.8226    2.0110 H         1 <0>         0.1998
     22 H6          4.3612    1.1730    1.3602 H         1 <0>         0.1546
     23 H7          6.6289    1.7411    2.1223 H         1 <0>         0.1616
     24 H8          3.8922   -1.4269    4.7381 H         1 <0>         0.1490
     25 H9         -1.8484   -0.1871    0.8426 H         1 <0>         0.4353
     26 H10        -1.8641   -0.1783   -0.8050 H         1 <0>         0.4445
     27 H11        -1.3624   -1.5214    0.0069 H         1 <0>         0.4369
@<TRIPOS>BOND
     1    1    2 1
     2    1   18 1
     3    1   19 1
     4    1   20 1
     5    2    3 1
     6    2    4 1
     7    2   17 1
     8    4    8 1
     9    4    5 2
    10    5    6 1
    11    5   21 1
    12    6    7 1
    13    7    8 2
    14    7    9 1
    15    9   14 ar
    16    9   10 ar
    17   10   11 ar
    18   10   22 1
    19   11   12 ar
    20   11   23 1
    21   12   13 ar
    22   12   16 1
    23   13   14 ar
    24   13   15 1
    25   14   24 1
    26   17   25 1
    27   17   26 1
    28   17   27 1
@<TRIPOS>MOLECULE
ZINC40420295
   31    33     0     0     0
SMALL
USER_CHARGES

@<TRIPOS>ATOM
      1 C1         -0.0167    1.3789    0.0096 C.ar      1 <0>        -0.0992
      2 C2          1.1669    2.0883    0.0021 C.ar      1 <0>        -0.0812
      3 C3          2.3851    1.4080   -0.0132 C.ar      1 <0>        -0.0278
      4 C4          2.3983    0.0125   -0.0208 C.ar      1 <0>        -0.0582
      5 C5          1.2074   -0.6859   -0.0132 C.ar      1 <0>        -0.0390
      6 C6          0.0021   -0.0041    0.0020 C.ar      1 <0>        -0.0765
      7 Cl1         1.2209   -2.4218   -0.0227 Cl        1 <0>        -0.0473
      8 C7          3.6567    2.1625   -0.0218 C.2       1 <0>         0.1791
      9 N1          4.9028    1.7109   -0.0416 N.2       1 <0>        -0.5047
     10 C8          5.9256    2.5330   -0.0472 C.2       1 <0>        -0.0099
     11 C9          5.7152    3.8762   -0.0324 C.2       1 <0>        -0.1796
     12 S1          3.9276    3.9299   -0.0161 S.3       1 <0>         0.1036
     13 C10         7.3309    1.9894   -0.0694 C.3       1 <0>         0.0829
     14 N2          7.7609    1.6875    1.3024 N.4       1 <0>        -0.4784
     15 C11         9.1309    1.1576    1.2808 C.3       1 <0>        -0.0842
     16 C12         9.3397   -0.2804    1.7598 C.3       1 <0>        -0.1534
     17 C13         9.8063    0.8903    2.6273 C.3       1 <0>        -0.1539
     18 H1         -0.9599    1.9048    0.0260 H         1 <0>         0.1492
     19 H2          1.1504    3.1681    0.0077 H         1 <0>         0.1358
     20 H3          3.3379   -0.5198   -0.0330 H         1 <0>         0.1452
     21 H4         -0.9271   -0.5545    0.0080 H         1 <0>         0.1471
     22 H5          6.4295    4.6862   -0.0341 H         1 <0>         0.2119
     23 H6          7.3588    1.0786   -0.6676 H         1 <0>         0.1458
     24 H7          8.0005    2.7309   -0.5052 H         1 <0>         0.1465
     25 H8          7.7352    2.5306    1.8562 H         1 <0>         0.4267
     26 H9          9.7594    1.5126    0.4641 H         1 <0>         0.1795
     27 H10         8.4606   -0.8332    2.0911 H         1 <0>         0.1213
     28 H11        10.1057   -0.8717    1.2582 H         1 <0>         0.1346
     29 H12        10.8793    1.0692    2.6965 H         1 <0>         0.1350
     30 H13         9.2342    1.1077    3.5293 H         1 <0>         0.1204
     31 H14         7.1411    1.0011    1.7059 H         1 <0>         0.4287
@<TRIPOS>BOND
     1    1    6 ar
     2    1    2 ar
     3    1   18 1
     4    2    3 ar
     5    2   19 1
     6    3    4 ar
     7    3    8 1
     8    4    5 ar
     9    4   20 1
    10    5    6 ar
    11    5    7 1
    12    6   21 1
    13    8   12 1
    14    8    9 2
    15    9   10 1
    16   10   11 2
    17   10   13 1
    18   11   12 1
    19   11   22 1
    20   13   14 1
    21   13   23 1
    22   13   24 1
    23   14   15 1
    24   14   25 1
    25   14   31 1
    26   15   17 1
    27   15   16 1
    28   15   26 1
    29   16   17 1
    30   16   27 1
    31   16   28 1
    32   17   29 1
    33   17   30 1
@<TRIPOS>MOLECULE
ZINC70840111
   27    28     0     0     0
SMALL
USER_CHARGES

@<TRIPOS>ATOM
      1 C1         -0.0187    1.5258    0.0104 C.3       1 <0>        -0.1777
      2 C2          0.0021   -0.0041    0.0020 C.3       1 <0>         0.1173
      3 H1         -1.0205   -0.3814    0.0098 H         1 <0>         0.1539
      4 C3          0.7309   -0.5033    1.2229 C.2       1 <0>        -0.0085
      5 C4          0.1265   -1.3833    2.0642 C.2       1 <0>        -0.1717
      6 S1          1.4141   -1.6112    3.2843 S.3       1 <0>         0.1082
      7 C5          2.6138   -0.5124    2.5425 C.2       1 <0>         0.1766
      8 N1          1.9525   -0.0932    1.4727 N.2       1 <0>        -0.5087
      9 C6          3.9782   -0.1685    2.9967 C.ar      1 <0>        -0.0381
     10 C7          4.7553    0.7288    2.2623 C.ar      1 <0>        -0.0317
     11 C8          6.0272    1.0469    2.6901 C.ar      1 <0>        -0.1411
     12 C9          6.5349    0.4772    3.8468 C.ar      1 <0>         0.1476
     13 C10         5.7677   -0.4153    4.5803 C.ar      1 <0>        -0.0761
     14 C11         4.4911   -0.7355    4.1639 C.ar      1 <0>        -0.0495
     15 Cl1         6.4110   -1.1252    6.0280 Cl        1 <0>        -0.0213
     16 F1          7.7817    0.7919    4.2611 F         1 <0>        -0.1103
     17 N2          0.6897   -0.4778   -1.2066 N.4       1 <0>        -0.6342
     18 H2          1.0039    1.9031    0.0027 H         1 <0>         0.0901
     19 H3         -0.5459    1.8868   -0.8726 H         1 <0>         0.0869
     20 H4         -0.5289    1.8773    0.9072 H         1 <0>         0.1041
     21 H5         -0.8587   -1.8226    2.0110 H         1 <0>         0.2123
     22 H6          4.3612    1.1730    1.3602 H         1 <0>         0.1515
     23 H7          6.6289    1.7411    2.1223 H         1 <0>         0.1604
     24 H8          3.8922   -1.4269    4.7381 H         1 <0>         0.1493
     25 H9          1.6363   -0.1286   -1.2138 H         1 <0>         0.4380
     26 H10         0.7033   -1.4867   -1.2121 H         1 <0>         0.4350
     27 H11         0.2017   -0.1436   -2.0240 H         1 <0>         0.4380
@<TRIPOS>BOND
     1    1    2 1
     2    1   18 1
     3    1   19 1
     4    1   20 1
     5    2    3 1
     6    2    4 1
     7    2   17 1
     8    4    8 1
     9    4    5 2
    10    5    6 1
    11    5   21 1
    12    6    7 1
    13    7    8 2
    14    7    9 1
    15    9   14 ar
    16    9   10 ar
    17   10   11 ar
    18   10   22 1
    19   11   12 ar
    20   11   23 1
    21   12   13 ar
    22   12   16 1
    23   13   14 ar
    24   13   15 1
    25   14   24 1
    26   17   25 1
    27   17   26 1
    28   17   27 1
@<TRIPOS>MOLECULE
ZINC82639860
   26    27     0     0     0
SMALL
USER_CHARGES

@<TRIPOS>ATOM
      1 C1         -0.0169    1.3921    0.0097 C.ar      1 <0>        -0.0269
      2 C2          1.1677    2.0957    0.0022 C.ar      1 <0>        -0.1982
      3 C3          2.3813    1.4169   -0.0131 C.ar      1 <0>         0.2579
      4 C4          2.4034    0.0264   -0.0212 C.ar      1 <0>        -0.2049
      5 C5          1.2222   -0.6828   -0.0142 C.ar      1 <0>        -0.0062
      6 C6          0.0021   -0.0041    0.0020 C.ar      1 <0>        -0.1145
      7 C7         -1.2667   -0.7618    0.0106 C.2       1 <0>         0.2113
      8 N1         -1.4639   -2.0731    0.0109 N.2       1 <0>        -0.5259
      9 C8         -2.6751   -2.5797    0.0200 C.2       1 <0>        -0.0071
     10 C9         -3.7546   -1.7544    0.0291 C.2       1 <0>        -0.1951
     11 S1         -2.9494   -0.1575    0.0311 S.3       1 <0>         0.0711
     12 C10        -2.8679   -4.0743    0.0196 C.3       1 <0>         0.0793
     13 N2         -2.8213   -4.5738   -1.3611 N.4       1 <0>        -0.6347
     14 N3          3.5789    2.1321   -0.0207 N.pl3     1 <0>        -0.8605
     15 H1         -0.9590    1.9198    0.0260 H         1 <0>         0.1280
     16 H2          1.1537    3.1756    0.0077 H         1 <0>         0.1354
     17 H3          3.3474   -0.4981   -0.0334 H         1 <0>         0.1337
     18 H4          1.2399   -1.7627   -0.0212 H         1 <0>         0.1340
     19 H5         -4.8072   -1.9959    0.0366 H         1 <0>         0.2069
     20 H6         -2.0751   -4.5431    0.6026 H         1 <0>         0.1460
     21 H7         -3.8348   -4.3160    0.4610 H         1 <0>         0.1467
     22 H8         -3.5552   -4.1399   -1.9007 H         1 <0>         0.4334
     23 H9         -1.9262   -4.3501   -1.7696 H         1 <0>         0.4382
     24 H10         3.5646    3.1020   -0.0153 H         1 <0>         0.4064
     25 H11         4.4260    1.6596   -0.0313 H         1 <0>         0.4062
     26 H12        -2.9504   -5.5745   -1.3613 H         1 <0>         0.4393
@<TRIPOS>BOND
     1    1    6 ar
     2    1    2 ar
     3    1   15 1
     4    2    3 ar
     5    2   16 1
     6    3    4 ar
     7    3   14 1
     8    4    5 ar
     9    4   17 1
    10    5    6 ar
    11    5   18 1
    12    6    7 1
    13    7   11 1
    14    7    8 2
    15    8    9 1
    16    9   10 2
    17    9   12 1
    18   10   11 1
    19   10   19 1
    20   12   13 1
    21   12   20 1
    22   12   21 1
    23   13   22 1
    24   13   23 1
    25   13   26 1
    26   14   24 1
    27   14   25 1
@<TRIPOS>MOLECULE
ZINC14807384
   27    28     0     0     0
SMALL
USER_CHARGES
N-methyl-1-(2-phenylthiazol-4-yl)methanamine
@<TRIPOS>ATOM
      1 C1         -2.9993   -6.0287   -1.4205 C.3       1 <0>        -0.0426
      2 C2         -2.8616   -4.0786    0.0081 C.3       1 <0>         0.0808
      3 C3         -2.6714   -2.5837    0.0147 C.2       1 <0>        -0.0096
      4 C4         -3.7528   -1.7598    0.0299 C.2       1 <0>        -0.1850
      5 S1         -2.9498   -0.1617    0.0384 S.3       1 <0>         0.0917
      6 C5         -1.2664   -0.7639    0.0105 C.2       1 <0>         0.1877
      7 N1         -1.4618   -2.0750    0.0054 N.2       1 <0>        -0.5108
      8 C6          0.0021   -0.0041    0.0020 C.ar      1 <0>        -0.0448
      9 C7         -0.0168    1.3913    0.0097 C.ar      1 <0>        -0.0839
     10 C8          1.1702    2.0943    0.0021 C.ar      1 <0>        -0.1148
     11 C9          2.3776    1.4189   -0.0135 C.ar      1 <0>        -0.0825
     12 C10         2.4032    0.0356   -0.0207 C.ar      1 <0>        -0.1205
     13 C11         1.2232   -0.6793   -0.0133 C.ar      1 <0>        -0.0634
     14 H1         -2.2053   -6.5122   -0.8512 H         1 <0>         0.1240
     15 H2         -3.9658   -6.2877   -0.9881 H         1 <0>         0.1240
     16 H3         -2.9619   -6.3674   -2.4559 H         1 <0>         0.1263
     17 H4         -2.0667   -4.5486    0.5872 H         1 <0>         0.1438
     18 H5         -3.8271   -4.3240    0.4503 H         1 <0>         0.1447
     19 H6         -4.8050   -2.0029    0.0387 H         1 <0>         0.2099
     20 H7         -0.9587    1.9197    0.0170 H         1 <0>         0.1285
     21 H8          1.1570    3.1742    0.0077 H         1 <0>         0.1383
     22 H9          3.3041    1.9738   -0.0197 H         1 <0>         0.1360
     23 H10         3.3490   -0.4857   -0.0325 H         1 <0>         0.1366
     24 H11         1.2446   -1.7590   -0.0189 H         1 <0>         0.1342
     25 N2         -2.8155   -4.5656   -1.3835 N.4       1 <0>        -0.5186
     26 H12        -3.5638   -4.1165   -1.9244 H         1 <0>         0.4325
     27 H13        -1.9056   -4.3280   -1.7955 H         1 <0>         0.4375
@<TRIPOS>BOND
     1    1   14 1
     2    1   15 1
     3    1   16 1
     4    1   25 1
     5    2    3 1
     6    2   17 1
     7    2   18 1
     8    2   25 1
     9    3    7 1
    10    3    4 2
    11    4    5 1
    12    4   19 1
    13    5    6 1
    14    6    7 2
    15    6    8 1
    16    8   13 ar
    17    8    9 ar
    18    9   10 ar
    19    9   20 1
    20   10   11 ar
    21   10   21 1
    22   11   12 ar
    23   11   22 1
    24   12   13 ar
    25   12   23 1
    26   13   24 1
    27   25   26 1
    28   25   27 1
@<TRIPOS>MOLECULE
ZINC43388145
   24    25     0     0     0
SMALL
USER_CHARGES

@<TRIPOS>ATOM
      1 C1         -0.0167    1.3779    0.0096 C.ar      1 <0>        -0.1366
      2 C2          1.1835    2.0893    0.0020 C.ar      1 <0>         0.0226
      3 C3          2.3968    1.4007   -0.0133 C.ar      1 <0>        -0.1148
      4 C4          2.4041    0.0187   -0.0208 C.ar      1 <0>         0.1397
      5 C5          1.2096   -0.6828   -0.0136 C.ar      1 <0>        -0.1620
      6 C6          0.0021   -0.0041    0.0020 C.ar      1 <0>         0.1456
      7 F1         -1.1593   -0.6942    0.0098 F         1 <0>        -0.1157
      8 F2          3.5783   -0.6493   -0.0356 F         1 <0>        -0.1176
      9 C7          1.1695    3.5680    0.0096 C.2       1 <0>         0.1679
     10 N1          2.1859    4.4190   -0.0011 N.2       1 <0>        -0.4970
     11 C8          1.9885    5.7163    0.0083 C.2       1 <0>        -0.0160
     12 C9          0.7213    6.2086    0.0293 C.2       1 <0>        -0.1750
     13 S1         -0.2228    4.6896    0.0276 S.3       1 <0>         0.1207
     14 C10         3.1644    6.6587   -0.0037 C.3       1 <0>         0.0794
     15 N2          3.6420    6.8633    1.3703 N.4       1 <0>        -0.6352
     16 H1         -0.9586    1.9060    0.0260 H         1 <0>         0.1495
     17 H2          3.3287    1.9467   -0.0196 H         1 <0>         0.1554
     18 H3          1.2198   -1.7627   -0.0202 H         1 <0>         0.1629
     19 H4          0.3796    7.2331    0.0399 H         1 <0>         0.2140
     20 H5          3.9656    6.2323   -0.6072 H         1 <0>         0.1485
     21 H6          2.8592    7.6150   -0.4285 H         1 <0>         0.1497
     22 H7          4.4292    7.4944    1.3623 H         1 <0>         0.4413
     23 H8          2.9002    7.2581    1.9290 H         1 <0>         0.4340
     24 H9          3.9245    5.9781    1.7635 H         1 <0>         0.4386
@<TRIPOS>BOND
     1    1    6 ar
     2    1    2 ar
     3    1   16 1
     4    2    3 ar
     5    2    9 1
     6    3    4 ar
     7    3   17 1
     8    4    5 ar
     9    4    8 1
    10    5    6 ar
    11    5   18 1
    12    6    7 1
    13    9   13 1
    14    9   10 2
    15   10   11 1
    16   11   12 2
    17   11   14 1
    18   12   13 1
    19   12   19 1
    20   14   15 1
    21   14   20 1
    22   14   21 1
    23   15   22 1
    24   15   23 1
    25   15   24 1
@<TRIPOS>MOLECULE
ZINC40999541
   27    28     0     0     0
SMALL
USER_CHARGES

@<TRIPOS>ATOM
      1 C1         -0.0184    1.5028    0.0103 C.3       1 <0>        -0.1276
      2 C2          0.0021   -0.0041    0.0020 C.ar      1 <0>        -0.0797
      3 C3          0.0057   -0.6864   -1.2013 C.ar      1 <0>        -0.0882
      4 C4          0.0249   -2.0657   -1.2162 C.ar      1 <0>        -0.0891
      5 C5          0.0406   -2.7744   -0.0139 C.ar      1 <0>        -0.0211
      6 C6          0.0368   -2.0825    1.1974 C.ar      1 <0>        -0.0962
      7 C7          0.0229   -0.7004    1.1996 C.ar      1 <0>         0.0985
      8 F1          0.0248   -0.0277    2.3712 F         1 <0>        -0.1263
      9 C8          0.0606   -4.2530   -0.0241 C.2       1 <0>         0.1810
     10 N1          0.0719   -5.1013    0.9945 N.2       1 <0>        -0.5069
     11 C9          0.0895   -6.3989    0.8004 C.2       1 <0>        -0.0134
     12 C10         0.0966   -6.8946   -0.4656 C.2       1 <0>        -0.1817
     13 S1          0.0683   -5.3783   -1.4136 S.3       1 <0>         0.1059
     14 C11         0.1025   -7.3382    1.9788 C.3       1 <0>         0.0792
     15 N2          1.4849   -7.5298    2.4372 N.4       1 <0>        -0.6350
     16 H1          1.0042    1.8801    0.0026 H         1 <0>         0.0857
     17 H2         -0.5455    1.8639   -0.8728 H         1 <0>         0.0822
     18 H3         -0.5286    1.8543    0.9071 H         1 <0>         0.0781
     19 H4         -0.0068   -0.1379   -2.1316 H         1 <0>         0.1493
     20 H5          0.0273   -2.5964   -2.1568 H         1 <0>         0.1365
     21 H6          0.0489   -2.6254    2.1310 H         1 <0>         0.1474
     22 H7          0.1105   -7.9198   -0.8048 H         1 <0>         0.2119
     23 H8         -0.4931   -6.9148    2.7876 H         1 <0>         0.1476
     24 H9         -0.3184   -8.2990    1.6823 H         1 <0>         0.1489
     25 H10         2.0362   -7.9218    1.6885 H         1 <0>         0.4338
     26 H11         1.8745   -6.6405    2.7117 H         1 <0>         0.4385
     27 H12         1.4936   -8.1587    3.2261 H         1 <0>         0.4407
@<TRIPOS>BOND
     1    1    2 1
     2    1   16 1
     3    1   17 1
     4    1   18 1
     5    2    7 ar
     6    2    3 ar
     7    3    4 ar
     8    3   19 1
     9    4    5 ar
    10    4   20 1
    11    5    6 ar
    12    5    9 1
    13    6    7 ar
    14    6   21 1
    15    7    8 1
    16    9   13 1
    17    9   10 2
    18   10   11 1
    19   11   12 2
    20   11   14 1
    21   12   13 1
    22   12   22 1
    23   14   15 1
    24   14   23 1
    25   14   24 1
    26   15   25 1
    27   15   26 1
    28   15   27 1
@<TRIPOS>MOLECULE
ZINC62606520
   27    28     0     0     0
SMALL
USER_CHARGES

@<TRIPOS>ATOM
      1 C1         -0.0178    1.4648    0.0101 C.3       1 <0>        -0.0468
      2 N1          0.0021   -0.0041    0.0020 N.4       1 <0>        -0.5087
      3 C2          0.6897   -0.4778   -1.2066 C.3       1 <0>         0.0775
      4 C3          0.7101   -1.9847   -1.2149 C.2       1 <0>        -0.0140
      5 C4         -0.2478   -2.6747   -1.8885 C.2       1 <0>        -0.1875
      6 S1          0.2642   -4.3565   -1.5598 S.3       1 <0>         0.1356
      7 C5          1.6945   -3.9579   -0.5636 C.2       1 <0>         0.1638
      8 N2          1.6560   -2.6328   -0.5761 N.2       1 <0>        -0.4988
      9 C6          2.6620   -4.8623    0.0931 C.ar      1 <0>        -0.0573
     10 C7          3.7178   -4.3367    0.8395 C.ar      1 <0>        -0.0357
     11 C8          4.6176   -5.1852    1.4501 C.ar      1 <0>        -0.1133
     12 C9          4.4770   -6.5562    1.3251 C.ar      1 <0>        -0.0502
     13 C10         3.4335   -7.0866    0.5872 C.ar      1 <0>        -0.0735
     14 C11         2.5204   -6.2471   -0.0258 C.ar      1 <0>         0.1359
     15 F1          1.4983   -6.7648   -0.7417 F         1 <0>        -0.1119
     16 Cl1         3.2661   -8.8079    0.4358 Cl        1 <0>        -0.0224
     17 H1          1.0047    1.8421    0.0024 H         1 <0>         0.1254
     18 H2         -0.5450    1.8259   -0.8730 H         1 <0>         0.1252
     19 H3         -0.5280    1.8163    0.9069 H         1 <0>         0.1278
     20 H4          0.4901   -0.3383    0.8195 H         1 <0>         0.4330
     21 H5          0.1625   -0.1167   -2.0897 H         1 <0>         0.1464
     22 H6          1.7123   -0.1005   -1.2143 H         1 <0>         0.1455
     23 H7         -1.0861   -2.3088   -2.4629 H         1 <0>         0.2116
     24 H8          3.8302   -3.2671    0.9385 H         1 <0>         0.1517
     25 H9          5.4348   -4.7783    2.0273 H         1 <0>         0.1550
     26 H10         5.1851   -7.2152    1.8054 H         1 <0>         0.1573
     27 H11        -0.9445   -0.3533    0.0092 H         1 <0>         0.4286
@<TRIPOS>BOND
     1    1    2 1
     2    1   17 1
     3    1   18 1
     4    1   19 1
     5    2    3 1
     6    2   20 1
     7    2   27 1
     8    3    4 1
     9    3   21 1
    10    3   22 1
    11    4    8 1
    12    4    5 2
    13    5    6 1
    14    5   23 1
    15    6    7 1
    16    7    8 2
    17    7    9 1
    18    9   14 ar
    19    9   10 ar
    20   10   11 ar
    21   10   24 1
    22   11   12 ar
    23   11   25 1
    24   12   13 ar
    25   12   26 1
    26   13   14 ar
    27   13   16 1
    28   14   15 1
@<TRIPOS>MOLECULE
ZINC85220201
   24    25     0     0     0
SMALL
USER_CHARGES

@<TRIPOS>ATOM
      1 C1         -0.0167    1.3803    0.0096 C.ar      1 <0>        -0.0755
      2 C2          1.1682    2.0941    0.0022 C.ar      1 <0>        -0.0667
      3 C3          2.3780    1.4293   -0.0129 C.ar      1 <0>        -0.0777
      4 C4          2.4041    0.0330   -0.0206 C.ar      1 <0>         0.0112
      5 C5          1.2057   -0.6811   -0.0130 C.ar      1 <0>        -0.0560
      6 C6          0.0021   -0.0041    0.0020 C.ar      1 <0>        -0.0217
      7 Cl1        -1.4904   -0.8907    0.0114 Cl        1 <0>        -0.0340
      8 C7          3.6963   -0.6853   -0.0373 C.2       1 <0>         0.1440
      9 N1          3.9338   -1.9894   -0.0520 N.2       1 <0>        -0.4910
     10 C8          5.1593   -2.4587   -0.0656 C.2       1 <0>        -0.0231
     11 C9          6.2135   -1.6002   -0.0648 C.2       1 <0>        -0.2058
     12 S1          5.3594   -0.0289   -0.0508 S.3       1 <0>         0.1569
     13 C10         5.3976   -3.9466   -0.0817 C.3       1 <0>         0.0784
     14 N2          5.3656   -4.4625    1.2934 N.4       1 <0>        -0.6352
     15 Br1         3.9964    2.4073   -0.0238 Br        1 <0>         0.0141
     16 H1         -0.9605    1.9051    0.0260 H         1 <0>         0.1577
     17 H2          1.1468    3.1739    0.0078 H         1 <0>         0.1589
     18 H3          1.2191   -1.7610   -0.0193 H         1 <0>         0.1556
     19 H4          7.2730   -1.8092   -0.0742 H         1 <0>         0.2054
     20 H5          4.6197   -4.4328   -0.6704 H         1 <0>         0.1459
     21 H6          6.3717   -4.1538   -0.5249 H         1 <0>         0.1475
     22 H7          4.4639   -4.2707    1.7036 H         1 <0>         0.4378
     23 H8          5.5252   -5.4588    1.2826 H         1 <0>         0.4398
     24 H9          6.0857   -4.0124    1.8383 H         1 <0>         0.4335
@<TRIPOS>BOND
     1    1    6 ar
     2    1    2 ar
     3    1   16 1
     4    2    3 ar
     5    2   17 1
     6    3    4 ar
     7    3   15 1
     8    4    5 ar
     9    4    8 1
    10    5    6 ar
    11    5   18 1
    12    6    7 1
    13    8   12 1
    14    8    9 2
    15    9   10 1
    16   10   11 2
    17   10   13 1
    18   11   12 1
    19   11   19 1
    20   13   14 1
    21   13   20 1
    22   13   21 1
    23   14   22 1
    24   14   23 1
    25   14   24 1
@<TRIPOS>MOLECULE
ZINC41010074
   33    34     0     0     0
SMALL
USER_CHARGES

@<TRIPOS>ATOM
      1 C1         -0.0187    1.5258    0.0104 C.3       1 <0>        -0.1566
      2 C2          0.0021   -0.0041    0.0020 C.3       1 <0>        -0.1515
      3 C3          0.7182   -0.4975   -1.2568 C.3       1 <0>        -0.0103
      4 N1          0.7381   -1.9663   -1.2649 N.4       1 <0>        -0.5087
      5 C4          1.4257   -2.4401   -2.4735 C.3       1 <0>         0.0781
      6 C5          1.4462   -3.9469   -2.4818 C.2       1 <0>        -0.0108
      7 C6          0.4882   -4.6371   -3.1555 C.2       1 <0>        -0.1766
      8 S1          1.0003   -6.3188   -2.8267 S.3       1 <0>         0.1086
      9 C7          2.4305   -5.9200   -1.8305 C.2       1 <0>         0.1738
     10 N2          2.3919   -4.5950   -1.8431 N.2       1 <0>        -0.5003
     11 C8          3.3988   -6.8244   -1.1742 C.ar      1 <0>        -0.0226
     12 C9          4.4542   -6.2980   -0.4277 C.ar      1 <0>        -0.0489
     13 C10         5.3544   -7.1460    0.1830 C.ar      1 <0>        -0.0972
     14 C11         5.2130   -8.5177    0.0570 C.ar      1 <0>        -0.0054
     15 C12         4.1677   -9.0467   -0.6829 C.ar      1 <0>        -0.0320
     16 C13         3.2574   -8.2073   -1.2938 C.ar      1 <0>        -0.0672
     17 Cl1         3.9983  -10.7676   -0.8361 Cl        1 <0>        -0.0223
     18 Cl2         6.3500   -9.5786    0.8286 Cl        1 <0>        -0.0216
     19 H1          1.0039    1.9031    0.0027 H         1 <0>         0.0677
     20 H2         -0.5459    1.8868   -0.8726 H         1 <0>         0.0675
     21 H3         -0.5289    1.8773    0.9072 H         1 <0>         0.0778
     22 H4          0.5293   -0.3651    0.8851 H         1 <0>         0.0864
     23 H5         -1.0205   -0.3814    0.0098 H         1 <0>         0.0862
     24 H6          0.1910   -0.1364   -2.1398 H         1 <0>         0.1333
     25 H7          1.7408   -0.1202   -1.2645 H         1 <0>         0.1335
     26 H8          1.2261   -2.3006   -0.4474 H         1 <0>         0.4311
     27 H9          0.8985   -2.0790   -3.3565 H         1 <0>         0.1466
     28 H10         2.4483   -2.0628   -2.4812 H         1 <0>         0.1459
     29 H11        -0.3501   -4.2713   -3.7298 H         1 <0>         0.2125
     30 H12         4.5660   -5.2284   -0.3288 H         1 <0>         0.1512
     31 H13         6.1714   -6.7393    0.7603 H         1 <0>         0.1574
     32 H14         2.4403   -8.6202   -1.8667 H         1 <0>         0.1481
     33 H15        -0.2085   -2.3156   -1.2577 H         1 <0>         0.4264
@<TRIPOS>BOND
     1    1    2 1
     2    1   19 1
     3    1   20 1
     4    1   21 1
     5    2    3 1
     6    2   22 1
     7    2   23 1
     8    3    4 1
     9    3   24 1
    10    3   25 1
    11    4    5 1
    12    4   26 1
    13    4   33 1
    14    5    6 1
    15    5   27 1
    16    5   28 1
    17    6   10 1
    18    6    7 2
    19    7    8 1
    20    7   29 1
    21    8    9 1
    22    9   10 2
    23    9   11 1
    24   11   16 ar
    25   11   12 ar
    26   12   13 ar
    27   12   30 1
    28   13   14 ar
    29   13   31 1
    30   14   15 ar
    31   14   18 1
    32   15   16 ar
    33   15   17 1
    34   16   32 1
@<TRIPOS>MOLECULE
ZINC62792830
   30    31     0     0     0
SMALL
USER_CHARGES

@<TRIPOS>ATOM
      1 C1         -0.0187    1.5258    0.0104 C.3       1 <0>        -0.1902
      2 C2          0.0021   -0.0041    0.0020 C.3       1 <0>        -0.0095
      3 N1         -1.3761   -0.5125    0.0124 N.4       1 <0>        -0.5091
      4 C3         -1.3562   -1.9814    0.0044 C.3       1 <0>         0.0779
      5 C4         -2.7700   -2.5030    0.0151 C.2       1 <0>        -0.0105
      6 C5         -3.3825   -2.8333   -1.1525 C.2       1 <0>        -0.1774
      7 S1         -4.9781   -3.3692   -0.5480 S.3       1 <0>         0.1061
      8 C6         -4.6559   -3.0955    1.1893 C.2       1 <0>         0.1769
      9 N2         -3.4100   -2.6442    1.1523 N.2       1 <0>        -0.5023
     10 C7         -5.5391   -3.3182    2.3539 C.ar      1 <0>        -0.0385
     11 C8         -5.0856   -3.0292    3.6420 C.ar      1 <0>        -0.0306
     12 C9         -5.9132   -3.2381    4.7253 C.ar      1 <0>        -0.1410
     13 C10        -7.1932   -3.7346    4.5373 C.ar      1 <0>         0.1476
     14 C11        -7.6490   -4.0240    3.2600 C.ar      1 <0>        -0.0765
     15 C12        -6.8307   -3.8126    2.1686 C.ar      1 <0>        -0.0494
     16 Cl1        -9.2537   -4.6463    3.0327 Cl        1 <0>        -0.0220
     17 F1         -7.9995   -3.9378    5.6020 F         1 <0>        -0.1105
     18 H1          1.0039    1.9031    0.0027 H         1 <0>         0.1084
     19 H2         -0.5459    1.8868   -0.8726 H         1 <0>         0.0805
     20 H3         -0.5289    1.8773    0.9072 H         1 <0>         0.0808
     21 H4          0.5123   -0.3556   -0.8948 H         1 <0>         0.1327
     22 H5          0.5293   -0.3651    0.8851 H         1 <0>         0.1328
     23 H6         -1.8484   -0.1871    0.8426 H         1 <0>         0.4309
     24 H7         -0.8460   -2.3329   -0.8924 H         1 <0>         0.1464
     25 H8         -0.8290   -2.3425    0.8874 H         1 <0>         0.1458
     26 H9         -3.0093   -2.7849   -2.1648 H         1 <0>         0.2122
     27 H10        -4.0880   -2.6429    3.7901 H         1 <0>         0.1525
     28 H11        -5.5628   -3.0147    5.7221 H         1 <0>         0.1606
     29 H12        -7.1879   -4.0336    1.1736 H         1 <0>         0.1492
     30 H13        -1.8641   -0.1783   -0.8050 H         1 <0>         0.4262
@<TRIPOS>BOND
     1    1    2 1
     2    1   18 1
     3    1   19 1
     4    1   20 1
     5    2    3 1
     6    2   21 1
     7    2   22 1
     8    3    4 1
     9    3   23 1
    10    3   30 1
    11    4    5 1
    12    4   24 1
    13    4   25 1
    14    5    9 1
    15    5    6 2
    16    6    7 1
    17    6   26 1
    18    7    8 1
    19    8    9 2
    20    8   10 1
    21   10   15 ar
    22   10   11 ar
    23   11   12 ar
    24   11   27 1
    25   12   13 ar
    26   12   28 1
    27   13   14 ar
    28   13   17 1
    29   14   15 ar
    30   14   16 1
    31   15   29 1
@<TRIPOS>MOLECULE
ZINC40999777
   24    25     0     0     0
SMALL
USER_CHARGES

@<TRIPOS>ATOM
      1 C1         -0.0167    1.3804    0.0096 C.ar      1 <0>        -0.1010
      2 C2          1.1666    2.0897    0.0021 C.ar      1 <0>        -0.0612
      3 C3          2.3847    1.4094   -0.0131 C.ar      1 <0>        -0.0283
      4 C4          2.3980    0.0125   -0.0207 C.ar      1 <0>         0.0206
      5 C5          1.2072   -0.6858   -0.0131 C.ar      1 <0>        -0.1045
      6 C6          0.0021   -0.0041    0.0020 C.ar      1 <0>         0.0030
      7 Cl1        -1.4915   -0.8889    0.0120 Cl        1 <0>        -0.0295
      8 Cl2         3.9083   -0.8431   -0.0402 Cl        1 <0>        -0.0260
      9 C7          3.6561    2.1637   -0.0217 C.2       1 <0>         0.1687
     10 N1          4.9023    1.7121   -0.0415 N.2       1 <0>        -0.4848
     11 C8          5.9251    2.5347   -0.0467 C.2       1 <0>        -0.0156
     12 C9          5.7146    3.8775   -0.0317 C.2       1 <0>        -0.1762
     13 S1          3.9270    3.9311   -0.0161 S.3       1 <0>         0.1083
     14 C10         7.3306    1.9913   -0.0689 C.3       1 <0>         0.0792
     15 N2          7.7605    1.6893    1.3029 N.4       1 <0>        -0.6354
     16 H1         -0.9599    1.9063    0.0260 H         1 <0>         0.1564
     17 H2          1.1501    3.1695    0.0077 H         1 <0>         0.1480
     18 H3          1.2155   -1.7657   -0.0189 H         1 <0>         0.1576
     19 H4          6.4288    4.6876   -0.0332 H         1 <0>         0.2119
     20 H5          7.3586    1.0807   -0.6673 H         1 <0>         0.1470
     21 H6          8.0000    2.7331   -0.5045 H         1 <0>         0.1490
     22 H7          7.7345    2.5323    1.8568 H         1 <0>         0.4339
     23 H8          7.1408    1.0027    1.7061 H         1 <0>         0.4383
     24 H9          8.7015    1.3255    1.2881 H         1 <0>         0.4406
@<TRIPOS>BOND
     1    1    6 ar
     2    1    2 ar
     3    1   16 1
     4    2    3 ar
     5    2   17 1
     6    3    4 ar
     7    3    9 1
     8    4    5 ar
     9    4    8 1
    10    5    6 ar
    11    5   18 1
    12    6    7 1
    13    9   13 1
    14    9   10 2
    15   10   11 1
    16   11   12 2
    17   11   14 1
    18   12   13 1
    19   12   19 1
    20   14   15 1
    21   14   20 1
    22   14   21 1
    23   15   22 1
    24   15   23 1
    25   15   24 1
@<TRIPOS>MOLECULE
ZINC02563892
   27    28     0     0     0
SMALL
USER_CHARGES
[2-[4-(trifluoromethyl)phenyl]thiazol-4-yl]methanamine
@<TRIPOS>ATOM
      1 C1         -2.4415   -0.4880    0.0295 C.ar      1 <0>        -0.0662
      2 C2         -3.4913   -1.3833    0.0302 C.ar      1 <0>        -0.0686
      3 C3         -3.2436   -2.7444    0.0200 C.ar      1 <0>        -0.1505
      4 C4         -1.9433   -3.2169    0.0045 C.ar      1 <0>        -0.0637
      5 C5         -0.8847   -2.3321   -0.0017 C.ar      1 <0>        -0.0866
      6 C6         -1.1278   -0.9580    0.0081 C.ar      1 <0>        -0.0074
      7 C7          0.0021   -0.0041    0.0020 C.2       1 <0>         0.1689
      8 N1         -0.0159    1.3214    0.0093 N.2       1 <0>        -0.5004
      9 C8          1.0962    2.0180    0.0024 C.2       1 <0>        -0.0163
     10 C9          2.2960    1.3786   -0.0125 C.2       1 <0>        -0.1762
     11 S1          1.7604   -0.3278   -0.0165 S.3       1 <0>         0.1120
     12 C10         1.0435    3.5240    0.0105 C.3       1 <0>         0.0836
     13 C11        -4.3950   -3.7166    0.0262 C.3       1 <0>         0.5057
     14 F1         -4.7382   -4.0245    1.3470 F         1 <0>        -0.1698
     15 F2         -5.4947   -3.1411   -0.6193 F         1 <0>        -0.1719
     16 F3         -4.0211   -4.8867   -0.6433 F         1 <0>        -0.1712
     17 H1         -2.6362    0.5742    0.0412 H         1 <0>         0.1477
     18 H2         -4.5086   -1.0208    0.0426 H         1 <0>         0.1507
     19 H3         -1.7566   -4.2806   -0.0030 H         1 <0>         0.1523
     20 H4          0.1298   -2.7022   -0.0137 H         1 <0>         0.1417
     21 H5          3.2954    1.7878   -0.0205 H         1 <0>         0.2129
     22 H6          0.1953    3.8547    0.6100 H         1 <0>         0.1461
     23 H7          1.9658    3.9176    0.4378 H         1 <0>         0.1501
     24 H8          0.8544    5.0242   -1.3867 H         1 <0>         0.4429
     25 H9          1.6326    3.6694   -1.9568 H         1 <0>         0.4357
     26 N2          0.8699    4.0057   -1.3712 N.4       1 <0>        -0.6441
     27 H10        -0.0192    3.6515   -1.7430 H         1 <0>         0.4427
@<TRIPOS>BOND
     1    1    6 ar
     2    1    2 ar
     3    1   17 1
     4    2    3 ar
     5    2   18 1
     6    3    4 ar
     7    3   13 1
     8    4    5 ar
     9    4   19 1
    10    5    6 ar
    11    5   20 1
    12    6    7 1
    13    7   11 1
    14    7    8 2
    15    8    9 1
    16    9   10 2
    17    9   12 1
    18   10   11 1
    19   10   21 1
    20   12   22 1
    21   12   23 1
    22   12   26 1
    23   13   14 1
    24   13   15 1
    25   13   16 1
    26   24   26 1
    27   25   26 1
    28   26   27 1
@<TRIPOS>MOLECULE
ZINC12370328
   20    21     0     0     0
SMALL
USER_CHARGES
2-(3-chlorophenyl)thiazole-4-carbaldehyde
@<TRIPOS>ATOM
      1 C1         -3.5013   -1.3596    0.0270 C.ar      1 <0>        -0.1038
      2 C2         -2.4447   -0.4719    0.0272 C.ar      1 <0>        -0.0656
      3 C3         -1.1345   -0.9507    0.0071 C.ar      1 <0>        -0.0051
      4 C4         -0.9006   -2.3262   -0.0024 C.ar      1 <0>        -0.0866
      5 C5         -1.9659   -3.2044    0.0029 C.ar      1 <0>        -0.0341
      6 C6         -3.2640   -2.7221    0.0175 C.ar      1 <0>        -0.0897
      7 Cl1        -1.6778   -4.9163   -0.0083 Cl        1 <0>        -0.0569
      8 C7          0.0021   -0.0041    0.0020 C.2       1 <0>         0.1282
      9 N1         -0.0158    1.3145    0.0093 N.2       1 <0>        -0.4452
     10 C8          1.1228    1.9949    0.0021 C.2       1 <0>        -0.0478
     11 C9          2.3184    1.2913   -0.0131 C.2       1 <0>        -0.1784
     12 S1          1.7534   -0.3508   -0.0166 S.3       1 <0>         0.1112
     13 C10         1.1180    3.4597    0.0095 C.2       1 <0>         0.4017
     14 O1          0.0651    4.0629    0.0228 O.2       1 <0>        -0.4334
     15 H1         -4.5158   -0.9895    0.0384 H         1 <0>         0.1439
     16 H2         -2.6318    0.5918    0.0391 H         1 <0>         0.1441
     17 H3          0.1115   -2.7030   -0.0135 H         1 <0>         0.1381
     18 H4         -4.0943   -3.4126    0.0220 H         1 <0>         0.1417
     19 H5          3.3315    1.6654   -0.0208 H         1 <0>         0.2134
     20 H6          2.0515    4.0028    0.0031 H         1 <0>         0.1245
@<TRIPOS>BOND
     1    1    6 ar
     2    1    2 ar
     3    1   15 1
     4    2    3 ar
     5    2   16 1
     6    3    4 ar
     7    3    8 1
     8    4    5 ar
     9    4   17 1
    10    5    6 ar
    11    5    7 1
    12    6   18 1
    13    8   12 1
    14    8    9 2
    15    9   10 1
    16   10   11 2
    17   10   13 1
    18   11   12 1
    19   11   19 1
    20   13   14 2
    21   13   20 1
@<TRIPOS>MOLECULE
ZINC87013002
   31    33     0     0     0
SMALL
USER_CHARGES

@<TRIPOS>ATOM
      1 C1         -0.0168    1.3913    0.0097 C.ar      1 <0>        -0.0769
      2 C2          1.1702    2.0943    0.0021 C.ar      1 <0>        -0.1112
      3 C3          2.3776    1.4189   -0.0135 C.ar      1 <0>        -0.0081
      4 C4          2.4032    0.0356   -0.0216 C.ar      1 <0>        -0.1257
      5 C5          1.2232   -0.6793   -0.0137 C.ar      1 <0>        -0.0554
      6 C6          0.0021   -0.0041    0.0020 C.ar      1 <0>        -0.0525
      7 C7         -1.2664   -0.7639    0.0105 C.2       1 <0>         0.1909
      8 N1         -1.4618   -2.0750    0.0109 N.2       1 <0>        -0.5129
      9 C8         -2.6714   -2.5837    0.0192 C.2       1 <0>        -0.0120
     10 C9         -3.7528   -1.7598    0.0276 C.2       1 <0>        -0.1863
     11 S1         -2.9498   -0.1617    0.0311 S.3       1 <0>         0.0915
     12 C10        -2.8615   -4.0787    0.0188 C.3       1 <0>         0.0795
     13 N2         -2.8131   -4.5781   -1.3619 N.4       1 <0>        -0.6348
     14 C11         3.6704    2.1932   -0.0222 C.3       1 <0>        -0.1364
     15 C12         4.9678    1.4041    0.1642 C.3       1 <0>        -0.1719
     16 C13         4.6134    1.9804   -1.2081 C.3       1 <0>        -0.1620
     17 H1         -0.9586    1.9196    0.0260 H         1 <0>         0.1297
     18 H2          1.1570    3.1742    0.0081 H         1 <0>         0.1385
     19 H3          3.3490   -0.4857   -0.0345 H         1 <0>         0.1368
     20 H4          1.2446   -1.7590   -0.0205 H         1 <0>         0.1350
     21 H5         -4.8051   -2.0029    0.0350 H         1 <0>         0.2101
     22 H6         -2.0682   -4.5460    0.6022 H         1 <0>         0.1469
     23 H7         -3.8282   -4.3221    0.4595 H         1 <0>         0.1480
     24 H8         -3.5474   -4.1456   -1.9019 H         1 <0>         0.4337
     25 H9         -1.9182   -4.3528   -1.7698 H         1 <0>         0.4383
     26 H10         3.6225    3.1929    0.4097 H         1 <0>         0.1208
     27 H11         5.7738    1.8845    0.7189 H         1 <0>         0.1043
     28 H12         4.8864    0.3248    0.2931 H         1 <0>         0.0999
     29 H13         4.2987    1.2803   -1.9820 H         1 <0>         0.0977
     30 H14         5.1862    2.8400   -1.5561 H         1 <0>         0.1042
     31 H15        -2.9404   -5.5791   -1.3621 H         1 <0>         0.4402
@<TRIPOS>BOND
     1    1    6 ar
     2    1    2 ar
     3    1   17 1
     4    2    3 ar
     5    2   18 1
     6    3    4 ar
     7    3   14 1
     8    4    5 ar
     9    4   19 1
    10    5    6 ar
    11    5   20 1
    12    6    7 1
    13    7   11 1
    14    7    8 2
    15    8    9 1
    16    9   10 2
    17    9   12 1
    18   10   11 1
    19   10   21 1
    20   12   13 1
    21   12   22 1
    22   12   23 1
    23   13   24 1
    24   13   25 1
    25   13   31 1
    26   14   16 1
    27   14   15 1
    28   14   26 1
    29   15   16 1
    30   15   27 1
    31   15   28 1
    32   16   29 1
    33   16   30 1
@<TRIPOS>MOLECULE
ZINC40999793
   30    32     0     0     0
SMALL
USER_CHARGES

@<TRIPOS>ATOM
      1 C1         -0.0156    1.3533   -0.1882 C.ar      1 <0>        -0.1142
      2 C2          1.1692    2.0861   -0.1969 C.ar      1 <0>        -0.0977
      3 C3          2.3792    1.4617   -0.1486 C.ar      1 <0>        -0.1156
      4 C4          2.4365    0.0626   -0.0887 C.ar      1 <0>        -0.0114
      5 C5          1.2333   -0.6842   -0.0793 C.ar      1 <0>        -0.0578
      6 C6          0.0026   -0.0066   -0.1307 C.ar      1 <0>        -0.0943
      7 C7          1.2893   -2.0872   -0.0182 C.ar      1 <0>        -0.0603
      8 C8          2.4941   -2.7219    0.0314 C.ar      1 <0>        -0.1278
      9 C9          3.6848   -2.0061    0.0231 C.ar      1 <0>        -0.0573
     10 C10         3.6766   -0.6210   -0.0368 C.ar      1 <0>        -0.0415
     11 C11         4.9448    0.1329   -0.0458 C.2       1 <0>         0.1893
     12 N1          5.3242    1.1334   -0.8304 N.2       1 <0>        -0.5013
     13 C12         6.5026    1.6939   -0.6970 C.2       1 <0>        -0.0178
     14 C13         7.3602    1.2493    0.2605 C.2       1 <0>        -0.1825
     15 S1          6.3815   -0.0506    1.0027 S.3       1 <0>         0.0967
     16 C14         6.9057    2.8284   -1.6033 C.3       1 <0>         0.0795
     17 N2          7.4613    2.2853   -2.8501 N.4       1 <0>        -0.6349
     18 H1         -0.9623    1.8719   -0.2231 H         1 <0>         0.1309
     19 H2          1.1280    3.1643   -0.2430 H         1 <0>         0.1268
     20 H3          3.2899    2.0422   -0.1568 H         1 <0>         0.1265
     21 H4         -0.9235   -0.5621   -0.1242 H         1 <0>         0.1364
     22 H5          0.3758   -2.6633   -0.0103 H         1 <0>         0.1399
     23 H6          2.5239   -3.8005    0.0785 H         1 <0>         0.1393
     24 H7          4.6262   -2.5339    0.0636 H         1 <0>         0.1315
     25 H8          8.3551    1.5898    0.5071 H         1 <0>         0.2102
     26 H9          6.0323    3.4397   -1.8307 H         1 <0>         0.1467
     27 H10         7.6583    3.4406   -1.1065 H         1 <0>         0.1481
     28 H11         8.2697    1.7195   -2.6396 H         1 <0>         0.4336
     29 H12         6.7645    1.7187   -3.3100 H         1 <0>         0.4387
     30 H13         7.7311    3.0449   -3.4570 H         1 <0>         0.4402
@<TRIPOS>BOND
     1    1    6 ar
     2    1    2 ar
     3    1   18 1
     4    2    3 ar
     5    2   19 1
     6    3    4 ar
     7    3   20 1
     8    4   10 ar
     9    4    5 ar
    10    5    6 ar
    11    5    7 ar
    12    6   21 1
    13    7    8 ar
    14    7   22 1
    15    8    9 ar
    16    8   23 1
    17    9   10 ar
    18    9   24 1
    19   10   11 1
    20   11   15 1
    21   11   12 2
    22   12   13 1
    23   13   14 2
    24   13   16 1
    25   14   15 1
    26   14   25 1
    27   16   17 1
    28   16   26 1
    29   16   27 1
    30   17   28 1
    31   17   29 1
    32   17   30 1
@<TRIPOS>MOLECULE
ZINC83251805
   28    29     0     0     0
SMALL
USER_CHARGES

@<TRIPOS>ATOM
      1 C1         -0.0184    1.5028    0.0103 C.3       1 <0>        -0.1208
      2 C2          0.0021   -0.0041    0.0020 C.ar      1 <0>        -0.0635
      3 C3          0.0057   -0.6862   -1.2016 C.ar      1 <0>        -0.1197
      4 C4          0.0249   -2.0657   -1.2161 C.ar      1 <0>        -0.0859
      5 C5          0.0405   -2.7729   -0.0132 C.ar      1 <0>        -0.0266
      6 C6          0.0368   -2.0788    1.1974 C.ar      1 <0>        -0.0642
      7 C7          0.0229   -0.6992    1.1980 C.ar      1 <0>        -0.1224
      8 C8          0.0606   -4.2514   -0.0214 C.2       1 <0>         0.1610
      9 N1          0.0718   -5.0983    0.9984 N.2       1 <0>        -0.4950
     10 C9          0.0895   -6.3962    0.8061 C.2       1 <0>         0.0585
     11 C10         0.0966   -6.8936   -0.4593 C.2       1 <0>        -0.1789
     12 S1          0.0683   -5.3786   -1.4093 S.3       1 <0>         0.0144
     13 C11         0.1024   -7.3339    1.9857 C.3       1 <0>         0.1288
     14 N2          1.4849   -7.5249    2.4443 N.3       1 <0>        -0.5338
     15 N3          1.5360   -8.4261    3.5842 N.3       1 <0>        -0.7011
     16 H1          1.0042    1.8801    0.0026 H         1 <0>         0.0758
     17 H2         -0.5455    1.8639   -0.8728 H         1 <0>         0.0702
     18 H3         -0.5286    1.8543    0.9071 H         1 <0>         0.0703
     19 H4         -0.0068   -0.1377   -2.1319 H         1 <0>         0.1318
     20 H5          0.0273   -2.5970   -2.1564 H         1 <0>         0.1274
     21 H6          0.0485   -2.6203    2.1317 H         1 <0>         0.1355
     22 H7          0.0244   -0.1607    2.1343 H         1 <0>         0.1314
     23 H8          0.1111   -7.9193   -0.7971 H         1 <0>         0.2003
     24 H9         -0.4931   -6.9093    2.7939 H         1 <0>         0.0577
     25 H10        -0.3185   -8.2951    1.6905 H         1 <0>         0.0877
     26 H11         1.9188   -6.6405    2.6629 H         1 <0>         0.3543
     27 H12         1.1021   -9.3104    3.3657 H         1 <0>         0.3517
     28 H13         2.4855   -8.5573    3.8992 H         1 <0>         0.3550
@<TRIPOS>BOND
     1    1    2 1
     2    1   16 1
     3    1   17 1
     4    1   18 1
     5    2    7 ar
     6    2    3 ar
     7    3    4 ar
     8    3   19 1
     9    4    5 ar
    10    4   20 1
    11    5    6 ar
    12    5    8 1
    13    6    7 ar
    14    6   21 1
    15    7   22 1
    16    8   12 1
    17    8    9 2
    18    9   10 1
    19   10   11 2
    20   10   13 1
    21   11   12 1
    22   11   23 1
    23   13   14 1
    24   13   24 1
    25   13   25 1
    26   14   15 1
    27   14   26 1
    28   15   27 1
    29   15   28 1
@<TRIPOS>MOLECULE
ZINC83251805
   29    30     0     0     0
SMALL
USER_CHARGES

@<TRIPOS>ATOM
      1 C1         -0.0184    1.5028    0.0103 C.3       1 <0>        -0.1264
      2 C2          0.0021   -0.0041    0.0020 C.ar      1 <0>        -0.0487
      3 C3          0.0057   -0.6862   -1.2016 C.ar      1 <0>        -0.1188
      4 C4          0.0249   -2.0657   -1.2161 C.ar      1 <0>        -0.0798
      5 C5          0.0405   -2.7729   -0.0132 C.ar      1 <0>        -0.0468
      6 C6          0.0368   -2.0788    1.1974 C.ar      1 <0>        -0.0577
      7 C7          0.0229   -0.6992    1.1980 C.ar      1 <0>        -0.1240
      8 C8          0.0606   -4.2514   -0.0214 C.2       1 <0>         0.1857
      9 N1          0.0718   -5.0983    0.9984 N.2       1 <0>        -0.4970
     10 C9          0.0895   -6.3962    0.8061 C.2       1 <0>         0.0441
     11 C10         0.0966   -6.8936   -0.4593 C.2       1 <0>        -0.2018
     12 S1          0.0683   -5.3786   -1.4093 S.3       1 <0>         0.0685
     13 C11         0.1024   -7.3339    1.9857 C.3       1 <0>         0.0928
     14 N2          1.4849   -7.5249    2.4443 N.3       1 <0>        -0.4839
     15 N3          1.5360   -8.4261    3.5842 N.4       1 <0>        -0.4975
     16 H1          1.0042    1.8801    0.0026 H         1 <0>         0.0801
     17 H2         -0.5455    1.8639   -0.8728 H         1 <0>         0.0741
     18 H3         -0.5286    1.8543    0.9071 H         1 <0>         0.0736
     19 H4         -0.0068   -0.1377   -2.1319 H         1 <0>         0.1364
     20 H5          0.0273   -2.5970   -2.1564 H         1 <0>         0.1282
     21 H6          0.0485   -2.6203    2.1317 H         1 <0>         0.1349
     22 H7          0.0244   -0.1607    2.1343 H         1 <0>         0.1348
     23 H8          0.1111   -7.9193   -0.7971 H         1 <0>         0.2031
     24 H9         -0.4931   -6.9093    2.7939 H         1 <0>         0.1241
     25 H10        -0.3185   -8.2951    1.6905 H         1 <0>         0.0902
     26 H11         2.0721   -7.8571    1.6941 H         1 <0>         0.3964
     27 H12         2.4939   -8.5407    3.8797 H         1 <0>         0.4518
     28 H13         0.9939   -8.0401    4.3427 H         1 <0>         0.4522
     29 H14         1.1556   -9.3229    3.3212 H         1 <0>         0.4112
@<TRIPOS>BOND
     1    1    2 1
     2    1   16 1
     3    1   17 1
     4    1   18 1
     5    2    7 ar
     6    2    3 ar
     7    3    4 ar
     8    3   19 1
     9    4    5 ar
    10    4   20 1
    11    5    6 ar
    12    5    8 1
    13    6    7 ar
    14    6   21 1
    15    7   22 1
    16    8   12 1
    17    8    9 2
    18    9   10 1
    19   10   11 2
    20   10   13 1
    21   11   12 1
    22   11   23 1
    23   13   14 1
    24   13   24 1
    25   13   25 1
    26   14   15 1
    27   14   26 1
    28   15   27 1
    29   15   28 1
    30   15   29 1
@<TRIPOS>MOLECULE
ZINC40999560
   24    25     0     0     0
SMALL
USER_CHARGES

@<TRIPOS>ATOM
      1 C1         -0.0168    1.3911    0.0097 C.ar      1 <0>        -0.0647
      2 C2          1.1694    2.0956    0.0021 C.ar      1 <0>        -0.1193
      3 C3          2.3789    1.4210   -0.0135 C.ar      1 <0>         0.1056
      4 C4          2.4046    0.0332   -0.0216 C.ar      1 <0>         0.0718
      5 C5          1.2227   -0.6809   -0.0137 C.ar      1 <0>        -0.0740
      6 C6          0.0021   -0.0041    0.0020 C.ar      1 <0>        -0.0222
      7 C7         -1.2667   -0.7630    0.0101 C.2       1 <0>         0.1741
      8 N1         -1.4629   -2.0741    0.0103 N.2       1 <0>        -0.5028
      9 C8         -2.6732   -2.5819    0.0186 C.2       1 <0>        -0.0143
     10 C9         -3.7538   -1.7573    0.0271 C.2       1 <0>        -0.1775
     11 S1         -2.9498   -0.1598    0.0300 S.3       1 <0>         0.1140
     12 C10        -2.8645   -4.0767    0.0182 C.3       1 <0>         0.0791
     13 N2         -2.8165   -4.5762   -1.3625 N.4       1 <0>        -0.6352
     14 F1          3.5873   -0.6197   -0.0378 F         1 <0>        -0.1158
     15 F2          3.5374    2.1160   -0.0213 F         1 <0>        -0.1121
     16 H1         -0.9590    1.9189    0.0260 H         1 <0>         0.1474
     17 H2          1.1548    3.1755    0.0081 H         1 <0>         0.1636
     18 H3          1.2427   -1.7607   -0.0204 H         1 <0>         0.1582
     19 H4         -4.8062   -1.9998    0.0339 H         1 <0>         0.2130
     20 H5         -2.0716   -4.5447    0.6016 H         1 <0>         0.1481
     21 H6         -3.8315   -4.3194    0.4589 H         1 <0>         0.1494
     22 H7         -3.5505   -4.1430   -1.9025 H         1 <0>         0.4339
     23 H8         -1.9214   -4.3515   -1.7704 H         1 <0>         0.4386
     24 H9         -2.9446   -5.5770   -1.3627 H         1 <0>         0.4412
@<TRIPOS>BOND
     1    1    6 ar
     2    1    2 ar
     3    1   16 1
     4    2    3 ar
     5    2   17 1
     6    3    4 ar
     7    3   15 1
     8    4    5 ar
     9    4   14 1
    10    5    6 ar
    11    5   18 1
    12    6    7 1
    13    7   11 1
    14    7    8 2
    15    8    9 1
    16    9   10 2
    17    9   12 1
    18   10   11 1
    19   10   19 1
    20   12   13 1
    21   12   20 1
    22   12   21 1
    23   13   22 1
    24   13   23 1
    25   13   24 1
@<TRIPOS>MOLECULE
ZINC70841123
   30    31     0     0     0
SMALL
USER_CHARGES

@<TRIPOS>ATOM
      1 C1         -0.0187    1.5258    0.0104 C.3       1 <0>        -0.1802
      2 C2          0.0021   -0.0041    0.0020 C.3       1 <0>         0.1157
      3 H1          0.5123   -0.3556   -0.8948 H         1 <0>         0.1511
      4 C3          0.7309   -0.5033    1.2229 C.2       1 <0>         0.0010
      5 C4          2.0863   -0.6103    1.2106 C.2       1 <0>        -0.1754
      6 S1          2.3834   -1.2283    2.8623 S.3       1 <0>         0.1084
      7 C5          0.6749   -1.2765    3.3873 C.2       1 <0>         0.1794
      8 N1          0.0590   -0.8303    2.3016 N.2       1 <0>        -0.5310
      9 C6          0.1033   -1.6962    4.6849 C.ar      1 <0>        -0.0253
     10 C7         -1.2773   -1.6617    4.8864 C.ar      1 <0>        -0.0640
     11 C8         -1.8050   -2.0544    6.0990 C.ar      1 <0>        -0.1045
     12 C9         -0.9689   -2.4820    7.1150 C.ar      1 <0>        -0.0768
     13 C10         0.4015   -2.5188    6.9222 C.ar      1 <0>        -0.0329
     14 C11         0.9415   -2.1336    5.7108 C.ar      1 <0>        -0.0788
     15 Cl1         1.4426   -3.0562    8.2032 Cl        1 <0>        -0.0427
     16 N2         -1.3761   -0.5125    0.0124 N.4       1 <0>        -0.5006
     17 C12        -2.0500   -0.1262   -1.2343 C.3       1 <0>        -0.0522
     18 H2          1.0039    1.9031    0.0027 H         1 <0>         0.1065
     19 H3         -0.5459    1.8868   -0.8726 H         1 <0>         0.0902
     20 H4         -0.5289    1.8773    0.9072 H         1 <0>         0.0841
     21 H5          2.7887   -0.3851    0.4217 H         1 <0>         0.2110
     22 H6         -1.9314   -1.3278    4.0945 H         1 <0>         0.1382
     23 H7         -2.8732   -2.0276    6.2557 H         1 <0>         0.1469
     24 H8         -1.3871   -2.7880    8.0626 H         1 <0>         0.1472
     25 H9          2.0103   -2.1668    5.5595 H         1 <0>         0.1398
     26 H10        -1.3629   -1.5185    0.0898 H         1 <0>         0.4316
     27 H11        -3.0726   -0.5034   -1.2266 H         1 <0>         0.1287
     28 H12        -2.0643    0.9605   -1.3179 H         1 <0>         0.1257
     29 H13        -1.5132   -0.5489   -2.0836 H         1 <0>         0.1244
     30 H14        -1.8730   -0.1212    0.7986 H         1 <0>         0.4345
@<TRIPOS>BOND
     1    1    2 1
     2    1   18 1
     3    1   19 1
     4    1   20 1
     5    2    3 1
     6    2    4 1
     7    2   16 1
     8    4    8 1
     9    4    5 2
    10    5    6 1
    11    5   21 1
    12    6    7 1
    13    7    8 2
    14    7    9 1
    15    9   14 ar
    16    9   10 ar
    17   10   11 ar
    18   10   22 1
    19   11   12 ar
    20   11   23 1
    21   12   13 ar
    22   12   24 1
    23   13   14 ar
    24   13   15 1
    25   14   25 1
    26   16   17 1
    27   16   26 1
    28   16   30 1
    29   17   27 1
    30   17   28 1
    31   17   29 1
@<TRIPOS>MOLECULE
ZINC70841128
   30    31     0     0     0
SMALL
USER_CHARGES

@<TRIPOS>ATOM
      1 C1         -0.0187    1.5258    0.0104 C.3       1 <0>        -0.1802
      2 C2          0.0021   -0.0041    0.0020 C.3       1 <0>         0.1156
      3 H1          0.5123   -0.3556   -0.8948 H         1 <0>         0.1511
      4 C3         -1.4117   -0.5257    0.0127 C.2       1 <0>         0.0011
      5 C4         -2.0955   -0.6637   -1.1543 C.2       1 <0>        -0.1754
      6 S1         -3.6549   -1.2975   -0.5500 S.3       1 <0>         0.1082
      7 C5         -3.2269   -1.3094    1.1860 C.2       1 <0>         0.1797
      8 N1         -1.9831   -0.8526    1.1479 N.2       1 <0>        -0.5311
      9 C6         -4.0398   -1.7224    2.3502 C.ar      1 <0>        -0.0254
     10 C7         -3.5084   -1.6457    3.6384 C.ar      1 <0>        -0.0640
     11 C8         -4.2713   -2.0324    4.7208 C.ar      1 <0>        -0.1045
     12 C9         -5.5612   -2.4956    4.5319 C.ar      1 <0>        -0.0767
     13 C10        -6.0948   -2.5744    3.2568 C.ar      1 <0>        -0.0330
     14 C11        -5.3430   -2.1848    2.1658 C.ar      1 <0>        -0.0788
     15 Cl1        -7.7141   -3.1575    3.0297 Cl        1 <0>        -0.0427
     16 N2          0.7126   -0.4907    1.1921 N.4       1 <0>        -0.5007
     17 C12         2.1220   -0.0825    1.1220 C.3       1 <0>        -0.0522
     18 H2          1.0039    1.9031    0.0027 H         1 <0>         0.0902
     19 H3         -0.5459    1.8868   -0.8726 H         1 <0>         0.1065
     20 H4         -0.5289    1.8773    0.9072 H         1 <0>         0.0841
     21 H5         -1.7836   -0.4494   -2.1658 H         1 <0>         0.2110
     22 H6         -2.5015   -1.2846    3.7877 H         1 <0>         0.1383
     23 H7         -3.8606   -1.9736    5.7179 H         1 <0>         0.1469
     24 H8         -6.1542   -2.7974    5.3826 H         1 <0>         0.1472
     25 H9         -5.7614   -2.2423    1.1718 H         1 <0>         0.1398
     26 H10         0.2896   -0.0986    2.0201 H         1 <0>         0.4345
     27 H11         2.6492   -0.4436    2.0051 H         1 <0>         0.1287
     28 H12         2.5788   -0.5061    0.2276 H         1 <0>         0.1244
     29 H13         2.1837    1.0050    1.0814 H         1 <0>         0.1257
     30 H14         0.6554   -1.4974    1.2298 H         1 <0>         0.4316
@<TRIPOS>BOND
     1    1    2 1
     2    1   18 1
     3    1   19 1
     4    1   20 1
     5    2    3 1
     6    2    4 1
     7    2   16 1
     8    4    8 1
     9    4    5 2
    10    5    6 1
    11    5   21 1
    12    6    7 1
    13    7    8 2
    14    7    9 1
    15    9   14 ar
    16    9   10 ar
    17   10   11 ar
    18   10   22 1
    19   11   12 ar
    20   11   23 1
    21   12   13 ar
    22   12   24 1
    23   13   14 ar
    24   13   15 1
    25   14   25 1
    26   16   17 1
    27   16   26 1
    28   16   30 1
    29   17   27 1
    30   17   28 1
    31   17   29 1
@<TRIPOS>MOLECULE
ZINC41010150
   31    33     0     0     0
SMALL
USER_CHARGES

@<TRIPOS>ATOM
      1 C1         -0.0167    1.3767    0.0096 C.ar      1 <0>        -0.0762
      2 C2          1.1838    2.0880    0.0020 C.ar      1 <0>        -0.0105
      3 C3          2.3968    1.3986   -0.0133 C.ar      1 <0>        -0.0553
      4 C4          2.4030    0.0177   -0.0208 C.ar      1 <0>        -0.0262
      5 C5          1.2087   -0.6826   -0.0136 C.ar      1 <0>        -0.0715
      6 C6          0.0021   -0.0041    0.0020 C.ar      1 <0>        -0.0215
      7 Cl1        -1.4904   -0.8907    0.0115 Cl        1 <0>        -0.0294
      8 Cl2         3.9111   -0.8418   -0.0398 Cl        1 <0>        -0.0327
      9 C7          1.1704    3.5666    0.0095 C.2       1 <0>         0.1717
     10 N1          2.1871    4.4172   -0.0011 N.2       1 <0>        -0.4987
     11 C8          1.9902    5.7146    0.0078 C.2       1 <0>        -0.0113
     12 C9          0.7233    6.2074    0.0284 C.2       1 <0>        -0.1751
     13 S1         -0.2215    4.6888    0.0276 S.3       1 <0>         0.1135
     14 C10         3.1665    6.6566   -0.0042 C.3       1 <0>         0.0829
     15 N2          3.6439    6.8614    1.3698 N.4       1 <0>        -0.4785
     16 C11         4.7904    7.7796    1.3581 C.3       1 <0>        -0.0844
     17 C12         6.1387    7.2323    1.8308 C.3       1 <0>        -0.1533
     18 C13         5.3613    8.2143    2.7094 C.3       1 <0>        -0.1538
     19 H1         -0.9585    1.9050    0.0259 H         1 <0>         0.1464
     20 H2          3.3290    1.9439   -0.0196 H         1 <0>         0.1525
     21 H3          1.2185   -1.7626   -0.0199 H         1 <0>         0.1578
     22 H4          0.3819    7.2320    0.0385 H         1 <0>         0.2133
     23 H5          3.9677    6.2296   -0.6074 H         1 <0>         0.1464
     24 H6          2.8618    7.6129   -0.4294 H         1 <0>         0.1471
     25 H7          2.9022    7.2566    1.9282 H         1 <0>         0.4268
     26 H8          4.7991    8.5105    0.5495 H         1 <0>         0.1797
     27 H9          6.1750    6.1908    2.1504 H         1 <0>         0.1213
     28 H10         7.0348    7.6030    1.3330 H         1 <0>         0.1347
     29 H11         5.7459    9.2310    2.7898 H         1 <0>         0.1351
     30 H12         4.8861    7.8189    3.6072 H         1 <0>         0.1205
     31 H13         3.9259    5.9762    1.7634 H         1 <0>         0.4287
@<TRIPOS>BOND
     1    1    6 ar
     2    1    2 ar
     3    1   19 1
     4    2    3 ar
     5    2    9 1
     6    3    4 ar
     7    3   20 1
     8    4    5 ar
     9    4    8 1
    10    5    6 ar
    11    5   21 1
    12    6    7 1
    13    9   13 1
    14    9   10 2
    15   10   11 1
    16   11   12 2
    17   11   14 1
    18   12   13 1
    19   12   22 1
    20   14   15 1
    21   14   23 1
    22   14   24 1
    23   15   16 1
    24   15   25 1
    25   15   31 1
    26   16   18 1
    27   16   17 1
    28   16   26 1
    29   17   18 1
    30   17   27 1
    31   17   28 1
    32   18   29 1
    33   18   30 1
@<TRIPOS>MOLECULE
ZINC52859451
   27    28     0     0     0
SMALL
USER_CHARGES

@<TRIPOS>ATOM
      1 C1         -0.0178    1.4648    0.0101 C.3       1 <0>        -0.0468
      2 N1          0.0021   -0.0041    0.0020 N.4       1 <0>        -0.5087
      3 C2         -1.3761   -0.5125    0.0124 C.3       1 <0>         0.0771
      4 C3         -1.3556   -2.0194    0.0042 C.2       1 <0>        -0.0136
      5 C4         -1.4429   -2.7078    1.1729 C.2       1 <0>        -0.1875
      6 S1         -1.3720   -4.3904    0.5710 S.3       1 <0>         0.1377
      7 C5         -1.2342   -3.9943   -1.1671 C.2       1 <0>         0.1628
      8 N2         -1.2590   -2.6692   -1.1322 N.2       1 <0>        -0.4991
      9 C6         -1.1270   -4.9004   -2.3302 C.ar      1 <0>        -0.0567
     10 C7         -1.0215   -4.3765   -3.6193 C.ar      1 <0>        -0.0324
     11 C8         -0.9218   -5.2280   -4.7014 C.ar      1 <0>        -0.0499
     12 C9         -0.9267   -6.5998   -4.5104 C.ar      1 <0>        -0.0488
     13 C10        -1.0310   -7.1264   -3.2363 C.ar      1 <0>        -0.1319
     14 C11        -1.1253   -6.2852   -2.1433 C.ar      1 <0>         0.1336
     15 F1         -1.2214   -6.8007   -0.8982 F         1 <0>        -0.1185
     16 Cl1        -0.7904   -4.5777   -6.3056 Cl        1 <0>        -0.0370
     17 H1          1.0047    1.8421    0.0024 H         1 <0>         0.1279
     18 H2         -0.5450    1.8259   -0.8730 H         1 <0>         0.1254
     19 H3         -0.5280    1.8163    0.9069 H         1 <0>         0.1252
     20 H4          0.4744   -0.3295   -0.8281 H         1 <0>         0.4331
     21 H5         -1.8863   -0.1610    0.9092 H         1 <0>         0.1465
     22 H6         -1.9033   -0.1515   -0.8706 H         1 <0>         0.1455
     23 H7         -1.5307   -2.3404    2.1847 H         1 <0>         0.2117
     24 H8         -1.0181   -3.3071   -3.7702 H         1 <0>         0.1555
     25 H9         -0.8492   -7.2611   -5.3607 H         1 <0>         0.1581
     26 H10        -1.0343   -8.1970   -3.0942 H         1 <0>         0.1623
     27 H11         0.4901   -0.3383    0.8195 H         1 <0>         0.4286
@<TRIPOS>BOND
     1    1    2 1
     2    1   17 1
     3    1   18 1
     4    1   19 1
     5    2    3 1
     6    2   20 1
     7    2   27 1
     8    3    4 1
     9    3   21 1
    10    3   22 1
    11    4    8 1
    12    4    5 2
    13    5    6 1
    14    5   23 1
    15    6    7 1
    16    7    8 2
    17    7    9 1
    18    9   14 ar
    19    9   10 ar
    20   10   11 ar
    21   10   24 1
    22   11   12 ar
    23   11   16 1
    24   12   13 ar
    25   12   25 1
    26   13   14 ar
    27   13   26 1
    28   14   15 1
@<TRIPOS>MOLECULE
ZINC40999543
   27    28     0     0     0
SMALL
USER_CHARGES

@<TRIPOS>ATOM
      1 C1         -0.0184    1.5028    0.0103 C.3       1 <0>        -0.1226
      2 C2          0.0021   -0.0041    0.0020 C.ar      1 <0>        -0.1118
      3 C3          0.0057   -0.6860   -1.1970 C.ar      1 <0>        -0.0575
      4 C4          0.0246   -2.0813   -1.2032 C.ar      1 <0>        -0.0506
      5 C5          0.0398   -2.7795    0.0053 C.ar      1 <0>        -0.0399
      6 C6          0.0360   -2.0881    1.1983 C.ar      1 <0>        -0.1502
      7 C7          0.0229   -0.7020    1.1989 C.ar      1 <0>         0.1355
      8 F1          0.0253   -0.0293    2.3704 F         1 <0>        -0.1222
      9 C8          0.0281   -2.8174   -2.4854 C.2       1 <0>         0.1858
     10 N1          0.0393   -4.1247   -2.7050 N.2       1 <0>        -0.5089
     11 C9          0.0402   -4.6108   -3.9242 C.2       1 <0>        -0.0128
     12 C10         0.0296   -3.7671   -4.9899 C.2       1 <0>        -0.1825
     13 S1          0.0104   -2.1843   -4.1575 S.3       1 <0>         0.0980
     14 C11         0.0536   -6.1019   -4.1422 C.3       1 <0>         0.0794
     15 N2          1.4381   -6.5910   -4.0971 N.4       1 <0>        -0.6350
     16 H1          1.0042    1.8801    0.0026 H         1 <0>         0.0831
     17 H2         -0.5455    1.8639   -0.8728 H         1 <0>         0.0788
     18 H3         -0.5286    1.8543    0.9071 H         1 <0>         0.0789
     19 H4         -0.0065   -0.1409   -2.1293 H         1 <0>         0.1388
     20 H5          0.0541   -3.8594    0.0060 H         1 <0>         0.1451
     21 H6          0.0478   -2.6274    2.1340 H         1 <0>         0.1506
     22 H7          0.0287   -3.9907   -6.0465 H         1 <0>         0.2112
     23 H8         -0.5294   -6.5887   -3.3603 H         1 <0>         0.1475
     24 H9         -0.3811   -6.3308   -5.1153 H         1 <0>         0.1485
     25 H10         1.8404   -6.3792   -3.1964 H         1 <0>         0.4384
     26 H11         1.4470   -7.5894   -4.2431 H         1 <0>         0.4406
     27 H12         1.9777   -6.1404   -4.8209 H         1 <0>         0.4338
@<TRIPOS>BOND
     1    1    2 1
     2    1   16 1
     3    1   17 1
     4    1   18 1
     5    2    7 ar
     6    2    3 ar
     7    3    4 ar
     8    3   19 1
     9    4    5 ar
    10    4    9 1
    11    5    6 ar
    12    5   20 1
    13    6    7 ar
    14    6   21 1
    15    7    8 1
    16    9   13 1
    17    9   10 2
    18   10   11 1
    19   11   12 2
    20   11   14 1
    21   12   13 1
    22   12   22 1
    23   14   15 1
    24   14   23 1
    25   14   24 1
    26   15   25 1
    27   15   26 1
    28   15   27 1
@<TRIPOS>MOLECULE
ZINC43389055
   24    25     0     0     0
SMALL
USER_CHARGES

@<TRIPOS>ATOM
      1 C1         -0.0168    1.3911    0.0097 C.ar      1 <0>        -0.0835
      2 C2          1.1696    2.0955    0.0021 C.ar      1 <0>        -0.0753
      3 C3          2.3783    1.4215   -0.0130 C.ar      1 <0>        -0.0495
      4 C4          2.4046    0.0346   -0.0212 C.ar      1 <0>         0.1147
      5 C5          1.2227   -0.6803   -0.0142 C.ar      1 <0>        -0.0914
      6 C6          0.0021   -0.0041    0.0020 C.ar      1 <0>        -0.0063
      7 C7         -1.2667   -0.7633    0.0105 C.2       1 <0>         0.1711
      8 N1         -1.4626   -2.0744    0.0109 N.2       1 <0>        -0.5010
      9 C8         -2.6726   -2.5825    0.0199 C.2       1 <0>        -0.0149
     10 C9         -3.7535   -1.7581    0.0291 C.2       1 <0>        -0.1768
     11 S1         -2.9498   -0.1604    0.0311 S.3       1 <0>         0.1163
     12 C10        -2.8634   -4.0774    0.0196 C.3       1 <0>         0.0791
     13 N2         -2.8161   -4.5768   -1.3611 N.4       1 <0>        -0.6351
     14 F1          3.5876   -0.6176   -0.0364 F         1 <0>        -0.1142
     15 Cl1         3.8667    2.3148   -0.0224 Cl        1 <0>        -0.0211
     16 H1         -0.9589    1.9190    0.0260 H         1 <0>         0.1460
     17 H2          1.1550    3.1754    0.0077 H         1 <0>         0.1602
     18 H3          1.2433   -1.7601   -0.0213 H         1 <0>         0.1569
     19 H4         -4.8058   -2.0008    0.0368 H         1 <0>         0.2133
     20 H5         -2.0700   -4.5451    0.6025 H         1 <0>         0.1482
     21 H6         -3.8300   -4.3204    0.4609 H         1 <0>         0.1495
     22 H7         -3.5506   -4.1438   -1.9007 H         1 <0>         0.4340
     23 H8         -1.9214   -4.3519   -1.7697 H         1 <0>         0.4386
     24 H9         -2.9439   -5.5776   -1.3614 H         1 <0>         0.4412
@<TRIPOS>BOND
     1    1    6 ar
     2    1    2 ar
     3    1   16 1
     4    2    3 ar
     5    2   17 1
     6    3    4 ar
     7    3   15 1
     8    4    5 ar
     9    4   14 1
    10    5    6 ar
    11    5   18 1
    12    6    7 1
    13    7   11 1
    14    7    8 2
    15    8    9 1
    16    9   10 2
    17    9   12 1
    18   10   11 1
    19   10   19 1
    20   12   13 1
    21   12   20 1
    22   12   21 1
    23   13   22 1
    24   13   23 1
    25   13   24 1
@<TRIPOS>MOLECULE
ZINC11850512
   27    28     0     0     0
SMALL
USER_CHARGES
[2-(o-tolyl)thiazol-4-yl]methanamine
@<TRIPOS>ATOM
      1 C1         -2.7039    0.7214   -0.2107 C.3       1 <0>        -0.1140
      2 C2         -2.4754    2.2056   -0.0841 C.ar      1 <0>        -0.0313
      3 C3         -3.5201    3.0854   -0.2808 C.ar      1 <0>        -0.1211
      4 C4         -3.3106    4.4483   -0.1706 C.ar      1 <0>        -0.0794
      5 C5         -2.0550    4.9383    0.1426 C.ar      1 <0>        -0.1223
      6 C6         -1.0033    4.0692    0.3464 C.ar      1 <0>        -0.0785
      7 C7         -1.2079    2.6930    0.2367 C.ar      1 <0>        -0.0497
      8 C8         -0.0850    1.7557    0.4534 C.2       1 <0>         0.1915
      9 N1         -0.0440    0.6443    1.1746 N.2       1 <0>        -0.5000
     10 C9          1.0522   -0.0719    1.2610 C.2       1 <0>        -0.0183
     11 C10         2.1737    0.3239    0.6023 C.2       1 <0>        -0.1830
     12 S1          1.5857    1.8206   -0.1804 S.3       1 <0>         0.0909
     13 C11         1.0678   -1.3311    2.0889 C.3       1 <0>         0.0840
     14 H1         -2.9008    0.2988    0.7745 H         1 <0>         0.0794
     15 H2         -3.5591    0.5397   -0.8616 H         1 <0>         0.0735
     16 H3         -1.8170    0.2523   -0.6367 H         1 <0>         0.0617
     17 H4         -4.5025    2.7092   -0.5255 H         1 <0>         0.1364
     18 H5         -4.1307    5.1328   -0.3292 H         1 <0>         0.1358
     19 H6         -1.8980    6.0034    0.2272 H         1 <0>         0.1371
     20 H7         -0.0238    4.4529    0.5907 H         1 <0>         0.1291
     21 H8          3.1494   -0.1376    0.5628 H         1 <0>         0.2096
     22 H9          0.0974   -1.8229    2.0206 H         1 <0>         0.1475
     23 H10         1.8420   -2.0016    1.7159 H         1 <0>         0.1456
     24 H11         0.6799   -0.3209    3.8403 H         1 <0>         0.4402
     25 H12         1.3631   -1.8202    4.0668 H         1 <0>         0.4419
     26 N2          1.3704   -0.9819    3.4881 N.4       1 <0>        -0.6439
     27 H13         2.3011   -0.5507    3.5347 H         1 <0>         0.4375
@<TRIPOS>BOND
     1    1    2 1
     2    1   14 1
     3    1   15 1
     4    1   16 1
     5    2    7 ar
     6    2    3 ar
     7    3    4 ar
     8    3   17 1
     9    4    5 ar
    10    4   18 1
    11    5    6 ar
    12    5   19 1
    13    6    7 ar
    14    6   20 1
    15    7    8 1
    16    8   12 1
    17    8    9 2
    18    9   10 1
    19   10   11 2
    20   10   13 1
    21   11   12 1
    22   11   21 1
    23   13   22 1
    24   13   23 1
    25   13   26 1
    26   24   26 1
    27   25   26 1
    28   26   27 1
@<TRIPOS>MOLECULE
ZINC40414408
   30    31     0     0     0
SMALL
USER_CHARGES

@<TRIPOS>ATOM
      1 C1         -0.0184    1.5028    0.0103 C.3       1 <0>        -0.1280
      2 C2          0.0021   -0.0041    0.0020 C.ar      1 <0>        -0.0442
      3 C3          0.0057   -0.6862   -1.2016 C.ar      1 <0>        -0.1183
      4 C4          0.0249   -2.0657   -1.2161 C.ar      1 <0>        -0.0775
      5 C5          0.0405   -2.7729   -0.0132 C.ar      1 <0>        -0.0530
      6 C6          0.0368   -2.0788    1.1974 C.ar      1 <0>        -0.0570
      7 C7          0.0229   -0.6992    1.1980 C.ar      1 <0>        -0.1240
      8 C8          0.0606   -4.2514   -0.0214 C.2       1 <0>         0.1907
      9 N1          0.0718   -5.0983    0.9984 N.2       1 <0>        -0.5125
     10 C9          0.0895   -6.3962    0.8061 C.2       1 <0>        -0.0089
     11 C10         0.0966   -6.8936   -0.4593 C.2       1 <0>        -0.1863
     12 S1          0.0683   -5.3786   -1.4093 S.3       1 <0>         0.0896
     13 C11         0.1024   -7.3339    1.9857 C.3       1 <0>         0.0769
     14 N2          1.4849   -7.5249    2.4443 N.4       1 <0>        -0.5085
     15 C12         1.4975   -8.4389    3.5942 C.3       1 <0>        -0.0468
     16 H1          1.0042    1.8801    0.0026 H         1 <0>         0.0815
     17 H2         -0.5455    1.8639   -0.8728 H         1 <0>         0.0753
     18 H3         -0.5286    1.8543    0.9071 H         1 <0>         0.0748
     19 H4         -0.0068   -0.1377   -2.1319 H         1 <0>         0.1378
     20 H5          0.0273   -2.5970   -2.1564 H         1 <0>         0.1288
     21 H6          0.0485   -2.6203    2.1317 H         1 <0>         0.1345
     22 H7          0.0244   -0.1607    2.1343 H         1 <0>         0.1362
     23 H8          0.1111   -7.9193   -0.7971 H         1 <0>         0.2096
     24 H9         -0.4931   -6.9093    2.7939 H         1 <0>         0.1447
     25 H10        -0.3185   -8.2951    1.6905 H         1 <0>         0.1455
     26 H11         2.0362   -7.9179    1.6962 H         1 <0>         0.4283
     27 H12         1.0766   -9.4001    3.2990 H         1 <0>         0.1250
     28 H13         2.5233   -8.5806    3.9345 H         1 <0>         0.1276
     29 H14         0.9020   -8.0144    4.4024 H         1 <0>         0.1251
     30 H15         1.8745   -6.6352    2.7176 H         1 <0>         0.4332
@<TRIPOS>BOND
     1    1    2 1
     2    1   16 1
     3    1   17 1
     4    1   18 1
     5    2    7 ar
     6    2    3 ar
     7    3    4 ar
     8    3   19 1
     9    4    5 ar
    10    4   20 1
    11    5    6 ar
    12    5    8 1
    13    6    7 ar
    14    6   21 1
    15    7   22 1
    16    8   12 1
    17    8    9 2
    18    9   10 1
    19   10   11 2
    20   10   13 1
    21   11   12 1
    22   11   23 1
    23   13   14 1
    24   13   24 1
    25   13   25 1
    26   14   15 1
    27   14   26 1
    28   14   30 1
    29   15   27 1
    30   15   28 1
    31   15   29 1
@<TRIPOS>MOLECULE
ZINC70842639
   27    28     0     0     0
SMALL
USER_CHARGES

@<TRIPOS>ATOM
      1 C1         -0.0187    1.5258    0.0104 C.3       1 <0>        -0.1771
      2 C2          0.0021   -0.0041    0.0020 C.3       1 <0>         0.1168
      3 H1          0.5123   -0.3556   -0.8948 H         1 <0>         0.1528
      4 C3         -1.4117   -0.5257    0.0127 C.2       1 <0>        -0.0139
      5 C4         -1.8246   -1.3933   -0.9490 C.2       1 <0>        -0.1951
      6 S1         -3.5212   -1.6576   -0.4485 S.3       1 <0>         0.1481
      7 C5         -3.4953   -0.5867    0.9830 C.2       1 <0>         0.1548
      8 N1         -2.2448   -0.1473    0.9536 N.2       1 <0>        -0.5016
      9 C6         -4.5758   -0.2781    1.9438 C.ar      1 <0>        -0.0110
     10 C7         -4.3428    0.6017    3.0019 C.ar      1 <0>        -0.0539
     11 C8         -5.3548    0.8862    3.8950 C.ar      1 <0>        -0.0975
     12 C9         -6.6001    0.3019    3.7447 C.ar      1 <0>        -0.0684
     13 C10        -6.8394   -0.5720    2.6984 C.ar      1 <0>        -0.0283
     14 C11        -5.8355   -0.8612    1.7931 C.ar      1 <0>        -0.0193
     15 Cl1        -6.1382   -1.9513    0.4765 Cl        1 <0>        -0.0074
     16 Cl2        -8.4046   -1.3010    2.5189 Cl        1 <0>        -0.0220
     17 N2          0.7126   -0.4907    1.1921 N.4       1 <0>        -0.6342
     18 H2          1.0039    1.9031    0.0027 H         1 <0>         0.0860
     19 H3         -0.5459    1.8868   -0.8726 H         1 <0>         0.1036
     20 H4         -0.5289    1.8773    0.9072 H         1 <0>         0.0895
     21 H5         -1.2794   -1.8076   -1.7841 H         1 <0>         0.2078
     22 H6         -3.3716    1.0586    3.1214 H         1 <0>         0.1502
     23 H7         -5.1746    1.5667    4.7141 H         1 <0>         0.1544
     24 H8         -7.3886    0.5285    4.4470 H         1 <0>         0.1567
     25 H9          0.2403   -0.1653    2.0223 H         1 <0>         0.4375
     26 H10         0.7262   -1.4996    1.1866 H         1 <0>         0.4347
     27 H11         1.6592   -0.1415    1.1850 H         1 <0>         0.4371
@<TRIPOS>BOND
     1    1    2 1
     2    1   18 1
     3    1   19 1
     4    1   20 1
     5    2    3 1
     6    2    4 1
     7    2   17 1
     8    4    8 1
     9    4    5 2
    10    5    6 1
    11    5   21 1
    12    6    7 1
    13    7    8 2
    14    7    9 1
    15    9   14 ar
    16    9   10 ar
    17   10   11 ar
    18   10   22 1
    19   11   12 ar
    20   11   23 1
    21   12   13 ar
    22   12   24 1
    23   13   14 ar
    24   13   16 1
    25   14   15 1
    26   17   25 1
    27   17   26 1
    28   17   27 1
@<TRIPOS>MOLECULE
ZINC70842633
   27    28     0     0     0
SMALL
USER_CHARGES

@<TRIPOS>ATOM
      1 C1         -0.0187    1.5258    0.0104 C.3       1 <0>        -0.1747
      2 C2          0.0021   -0.0041    0.0020 C.3       1 <0>         0.1092
      3 H1          0.5123   -0.3556   -0.8948 H         1 <0>         0.1568
      4 C3          0.7309   -0.5033    1.2229 C.2       1 <0>         0.0335
      5 C4          0.1264   -1.3834    2.0643 C.2       1 <0>        -0.2797
      6 S1          1.4141   -1.6112    3.2843 S.3       1 <0>         0.1554
      7 C5          2.6138   -0.5124    2.5424 C.2       1 <0>         0.1683
      8 N1          1.9524   -0.0932    1.4727 N.2       1 <0>        -0.4882
      9 C6          3.9779   -0.1679    2.9969 C.ar      1 <0>        -0.0150
     10 C7          4.7555    0.7291    2.2630 C.ar      1 <0>        -0.0490
     11 C8          6.0273    1.0472    2.6919 C.ar      1 <0>        -0.0972
     12 C9          6.5341    0.4795    3.8475 C.ar      1 <0>        -0.0663
     13 C10         5.7698   -0.4114    4.5809 C.ar      1 <0>        -0.0295
     14 C11         4.4915   -0.7342    4.1651 C.ar      1 <0>        -0.0175
     15 Cl1         3.5302   -1.8456    5.0894 Cl        1 <0>        -0.0089
     16 Cl2         6.4148   -1.1193    6.0288 Cl        1 <0>        -0.0226
     17 N2         -1.3761   -0.5125    0.0124 N.4       1 <0>        -0.6346
     18 H2          1.0039    1.9031    0.0027 H         1 <0>         0.1146
     19 H3         -0.5459    1.8868   -0.8726 H         1 <0>         0.0877
     20 H4         -0.5289    1.8773    0.9072 H         1 <0>         0.0804
     21 H5         -0.8588   -1.8228    2.0112 H         1 <0>         0.1957
     22 H6          4.3621    1.1732    1.3605 H         1 <0>         0.1534
     23 H7          6.6294    1.7410    2.1240 H         1 <0>         0.1557
     24 H8          7.5306    0.7323    4.1785 H         1 <0>         0.1573
     25 H9         -1.8641   -0.1783   -0.8050 H         1 <0>         0.4436
     26 H10        -1.3624   -1.5214    0.0069 H         1 <0>         0.4367
     27 H11        -1.8484   -0.1871    0.8426 H         1 <0>         0.4350
@<TRIPOS>BOND
     1    1    2 1
     2    1   18 1
     3    1   19 1
     4    1   20 1
     5    2    3 1
     6    2    4 1
     7    2   17 1
     8    4    8 1
     9    4    5 2
    10    5    6 1
    11    5   21 1
    12    6    7 1
    13    7    8 2
    14    7    9 1
    15    9   14 ar
    16    9   10 ar
    17   10   11 ar
    18   10   22 1
    19   11   12 ar
    20   11   23 1
    21   12   13 ar
    22   12   24 1
    23   13   14 ar
    24   13   16 1
    25   14   15 1
    26   17   25 1
    27   17   26 1
    28   17   27 1
@<TRIPOS>MOLECULE
ZINC62792831
   33    34     0     0     0
SMALL
USER_CHARGES

@<TRIPOS>ATOM
      1 C1         -0.0187    1.5258    0.0104 C.3       1 <0>        -0.1566
      2 C2          0.0021   -0.0041    0.0020 C.3       1 <0>        -0.1516
      3 C3          0.7182   -0.4975   -1.2568 C.3       1 <0>        -0.0103
      4 N1          0.7381   -1.9663   -1.2649 N.4       1 <0>        -0.5087
      5 C4          1.4257   -2.4401   -2.4735 C.3       1 <0>         0.0780
      6 C5          1.4462   -3.9469   -2.4818 C.2       1 <0>        -0.0103
      7 C6          0.4882   -4.6370   -3.1554 C.2       1 <0>        -0.1773
      8 S1          0.9999   -6.3188   -2.8260 S.3       1 <0>         0.1063
      9 C7          2.4300   -5.9201   -1.8297 C.2       1 <0>         0.1768
     10 N2          2.3921   -4.5950   -1.8430 N.2       1 <0>        -0.5021
     11 C8          3.3978   -6.8246   -1.1730 C.ar      1 <0>        -0.0384
     12 C9          4.4532   -6.2980   -0.4266 C.ar      1 <0>        -0.0306
     13 C10         5.3531   -7.1456    0.1846 C.ar      1 <0>        -0.1410
     14 C11         5.2118   -8.5184    0.0587 C.ar      1 <0>         0.1475
     15 C12         4.1655   -9.0473   -0.6819 C.ar      1 <0>        -0.0764
     16 C13         3.2558   -8.2076   -1.2924 C.ar      1 <0>        -0.0495
     17 Cl1         3.9954  -10.7681   -0.8355 Cl        1 <0>        -0.0219
     18 F1          6.0965   -9.3442    0.6592 F         1 <0>        -0.1105
     19 H1          1.0039    1.9031    0.0027 H         1 <0>         0.0677
     20 H2         -0.5459    1.8868   -0.8726 H         1 <0>         0.0675
     21 H3         -0.5289    1.8773    0.9072 H         1 <0>         0.0778
     22 H4          0.5293   -0.3651    0.8851 H         1 <0>         0.0864
     23 H5         -1.0205   -0.3814    0.0098 H         1 <0>         0.0862
     24 H6          0.1910   -0.1364   -2.1398 H         1 <0>         0.1333
     25 H7          1.7408   -0.1202   -1.2645 H         1 <0>         0.1335
     26 H8          1.2261   -2.3006   -0.4474 H         1 <0>         0.4311
     27 H9          0.8985   -2.0790   -3.3565 H         1 <0>         0.1465
     28 H10         2.4483   -2.0628   -2.4812 H         1 <0>         0.1459
     29 H11        -0.3500   -4.2711   -3.7298 H         1 <0>         0.2122
     30 H12         4.5651   -5.2284   -0.3281 H         1 <0>         0.1525
     31 H13         6.1699   -6.7387    0.7623 H         1 <0>         0.1605
     32 H14         2.4383   -8.6201   -1.8652 H         1 <0>         0.1492
     33 H15        -0.2085   -2.3156   -1.2577 H         1 <0>         0.4263
@<TRIPOS>BOND
     1    1    2 1
     2    1   19 1
     3    1   20 1
     4    1   21 1
     5    2    3 1
     6    2   22 1
     7    2   23 1
     8    3    4 1
     9    3   24 1
    10    3   25 1
    11    4    5 1
    12    4   26 1
    13    4   33 1
    14    5    6 1
    15    5   27 1
    16    5   28 1
    17    6   10 1
    18    6    7 2
    19    7    8 1
    20    7   29 1
    21    8    9 1
    22    9   10 2
    23    9   11 1
    24   11   16 ar
    25   11   12 ar
    26   12   13 ar
    27   12   30 1
    28   13   14 ar
    29   13   31 1
    30   14   15 ar
    31   14   18 1
    32   15   16 ar
    33   15   17 1
    34   16   32 1
@<TRIPOS>MOLECULE
ZINC41010019
   30    31     0     0     0
SMALL
USER_CHARGES

@<TRIPOS>ATOM
      1 C1         -0.0187    1.5258    0.0104 C.3       1 <0>        -0.1900
      2 C2          0.0021   -0.0041    0.0020 C.3       1 <0>        -0.0096
      3 N1          0.7126   -0.4907    1.1921 N.4       1 <0>        -0.5090
      4 C3          0.7325   -1.9595    1.1840 C.3       1 <0>         0.0778
      5 C4          1.4614   -2.4588    2.4049 C.2       1 <0>        -0.0161
      6 C5          0.7648   -2.8028    3.5205 C.2       1 <0>        -0.2008
      7 S1          2.0991   -3.3016    4.6019 S.3       1 <0>         0.1460
      8 C6          3.4353   -2.9982    3.4532 C.2       1 <0>         0.1551
      9 N2          2.7692   -2.5672    2.3912 N.2       1 <0>        -0.4951
     10 C7          4.8906   -3.1831    3.6367 C.ar      1 <0>        -0.0114
     11 C8          5.7724   -2.8758    2.5994 C.ar      1 <0>        -0.0528
     12 C9          7.1294   -3.0499    2.7764 C.ar      1 <0>        -0.0974
     13 C10         7.6184   -3.5282    3.9792 C.ar      1 <0>        -0.0684
     14 C11         6.7508   -3.8357    5.0127 C.ar      1 <0>        -0.0286
     15 C12         5.3892   -3.6604    4.8503 C.ar      1 <0>        -0.0190
     16 Cl1         4.3018   -4.0390    6.1495 Cl        1 <0>        -0.0082
     17 Cl2         7.3739   -4.4363    6.5176 Cl        1 <0>        -0.0226
     18 H1          1.0039    1.9031    0.0027 H         1 <0>         0.0806
     19 H2         -0.5459    1.8868   -0.8726 H         1 <0>         0.1081
     20 H3         -0.5289    1.8773    0.9072 H         1 <0>         0.0804
     21 H4         -1.0205   -0.3814    0.0098 H         1 <0>         0.1323
     22 H5          0.5123   -0.3556   -0.8948 H         1 <0>         0.1325
     23 H6          1.6592   -0.1414    1.1850 H         1 <0>         0.4305
     24 H7         -0.2901   -2.3368    1.1918 H         1 <0>         0.1453
     25 H8          1.2427   -2.3111    0.2873 H         1 <0>         0.1442
     26 H9         -0.2994   -2.7805    3.7033 H         1 <0>         0.2077
     27 H10         5.3930   -2.5027    1.6596 H         1 <0>         0.1513
     28 H11         7.8119   -2.8125    1.9738 H         1 <0>         0.1546
     29 H12         8.6818   -3.6624    4.1119 H         1 <0>         0.1567
     30 H13         0.2403   -0.1653    2.0223 H         1 <0>         0.4260
@<TRIPOS>BOND
     1    1    2 1
     2    1   18 1
     3    1   19 1
     4    1   20 1
     5    2    3 1
     6    2   21 1
     7    2   22 1
     8    3    4 1
     9    3   23 1
    10    3   30 1
    11    4    5 1
    12    4   24 1
    13    4   25 1
    14    5    9 1
    15    5    6 2
    16    6    7 1
    17    6   26 1
    18    7    8 1
    19    8    9 2
    20    8   10 1
    21   10   15 ar
    22   10   11 ar
    23   11   12 ar
    24   11   27 1
    25   12   13 ar
    26   12   28 1
    27   13   14 ar
    28   13   29 1
    29   14   15 ar
    30   14   17 1
    31   15   16 1
@<TRIPOS>MOLECULE
ZINC41010123
   33    34     0     0     0
SMALL
USER_CHARGES

@<TRIPOS>ATOM
      1 C1         -0.0187    1.5258    0.0104 C.3       1 <0>        -0.1859
      2 C2          0.0021   -0.0041    0.0020 C.3       1 <0>         0.0240
      3 C3          0.7182   -0.4975   -1.2568 C.3       1 <0>        -0.1844
      4 N1          0.7126   -0.4907    1.1921 N.4       1 <0>        -0.5066
      5 C4         -0.0398   -0.1189    2.3978 C.3       1 <0>         0.0746
      6 C5          0.6890   -0.6181    3.6187 C.2       1 <0>        -0.0091
      7 C6          1.5341    0.2069    4.2919 C.2       1 <0>        -0.1772
      8 S1          2.0886   -0.8826    5.5973 S.3       1 <0>         0.1082
      9 C7          1.1369   -2.3140    5.1051 C.2       1 <0>         0.1734
     10 N2          0.5048   -1.8483    4.0369 N.2       1 <0>        -0.5000
     11 C8          1.0689   -3.6544    5.7256 C.ar      1 <0>        -0.0223
     12 C9          0.2555   -4.6432    5.1698 C.ar      1 <0>        -0.0490
     13 C10         0.1961   -5.8920    5.7522 C.ar      1 <0>        -0.0972
     14 C11         0.9413   -6.1664    6.8865 C.ar      1 <0>        -0.0055
     15 C12         1.7503   -5.1892    7.4435 C.ar      1 <0>        -0.0320
     16 C13         1.8220   -3.9372    6.8656 C.ar      1 <0>        -0.0673
     17 Cl1         2.6808   -5.5415    8.8661 Cl        1 <0>        -0.0225
     18 Cl2         0.8611   -7.7407    7.6139 Cl        1 <0>        -0.0217
     19 H1          1.0039    1.9031    0.0027 H         1 <0>         0.0823
     20 H2         -0.5459    1.8868   -0.8726 H         1 <0>         0.1075
     21 H3         -0.5289    1.8773    0.9072 H         1 <0>         0.0815
     22 H4         -1.0205   -0.3814    0.0098 H         1 <0>         0.1409
     23 H5          1.7408   -0.1202   -1.2645 H         1 <0>         0.0814
     24 H6          0.7330   -1.5874   -1.2628 H         1 <0>         0.0819
     25 H7          0.1910   -0.1364   -2.1398 H         1 <0>         0.1080
     26 H8          0.7982   -1.4950    1.1455 H         1 <0>         0.4311
     27 H9         -0.1324    0.9660    2.4481 H         1 <0>         0.1470
     28 H10        -1.0328   -0.5668    2.3589 H         1 <0>         0.1457
     29 H11         1.7979    1.2352    4.0933 H         1 <0>         0.2122
     30 H12        -0.3266   -4.4306    4.2852 H         1 <0>         0.1512
     31 H13        -0.4334   -6.6574    5.3228 H         1 <0>         0.1574
     32 H14         2.4563   -3.1773    7.2975 H         1 <0>         0.1481
     33 H15         1.6317   -0.0761    1.2281 H         1 <0>         0.4242
@<TRIPOS>BOND
     1    1    2 1
     2    1   19 1
     3    1   20 1
     4    1   21 1
     5    2    3 1
     6    2    4 1
     7    2   22 1
     8    3   23 1
     9    3   24 1
    10    3   25 1
    11    4    5 1
    12    4   26 1
    13    4   33 1
    14    5    6 1
    15    5   27 1
    16    5   28 1
    17    6   10 1
    18    6    7 2
    19    7    8 1
    20    7   29 1
    21    8    9 1
    22    9   10 2
    23    9   11 1
    24   11   16 ar
    25   11   12 ar
    26   12   13 ar
    27   12   30 1
    28   13   14 ar
    29   13   31 1
    30   14   15 ar
    31   14   18 1
    32   15   16 ar
    33   15   17 1
    34   16   32 1
@<TRIPOS>MOLECULE
ZINC02548373
   21    22     0     0     0
SMALL
USER_CHARGES
4-(chloromethyl)-2-(3-chlorophenyl)-thiazole
@<TRIPOS>ATOM
      1 C1         -3.4918   -1.3828    0.0288 C.ar      1 <0>        -0.1049
      2 C2         -2.4414   -0.4879    0.0285 C.ar      1 <0>        -0.0648
      3 C3         -1.1278   -0.9580    0.0077 C.ar      1 <0>        -0.0052
      4 C4         -0.8846   -2.3321   -0.0020 C.ar      1 <0>        -0.0847
      5 C5         -1.9440   -3.2174    0.0033 C.ar      1 <0>        -0.0343
      6 C6         -3.2453   -2.7437    0.0187 C.ar      1 <0>        -0.0892
      7 Cl1        -1.6445   -4.9273   -0.0087 Cl        1 <0>        -0.0567
      8 C7          0.0021   -0.0041    0.0020 C.2       1 <0>         0.1547
      9 N1         -0.0159    1.3214    0.0093 N.2       1 <0>        -0.4821
     10 C8          1.0962    2.0180    0.0024 C.2       1 <0>         0.0394
     11 C9          2.2960    1.3786   -0.0125 C.2       1 <0>        -0.1767
     12 S1          1.7604   -0.3278   -0.0165 S.3       1 <0>         0.0387
     13 C10         1.0435    3.5240    0.0105 C.3       1 <0>         0.0358
     14 Cl2         1.0058    4.1332   -1.6860 Cl        1 <0>        -0.1651
     15 H1         -4.5089   -1.0196    0.0411 H         1 <0>         0.1437
     16 H2         -2.6356    0.5744    0.0409 H         1 <0>         0.1437
     17 H3          0.1300   -2.7022   -0.0133 H         1 <0>         0.1381
     18 H4         -4.0710   -3.4398    0.0231 H         1 <0>         0.1416
     19 H5          3.2954    1.7878   -0.0203 H         1 <0>         0.2052
     20 H6          0.1464    3.8534    0.5348 H         1 <0>         0.1107
     21 H7          1.9252    3.9157    0.5177 H         1 <0>         0.1121
@<TRIPOS>BOND
     1    1    6 ar
     2    1    2 ar
     3    1   15 1
     4    2    3 ar
     5    2   16 1
     6    3    4 ar
     7    3    8 1
     8    4    5 ar
     9    4   17 1
    10    5    6 ar
    11    5    7 1
    12    6   18 1
    13    8   12 1
    14    8    9 2
    15    9   10 1
    16   10   11 2
    17   10   13 1
    18   11   12 1
    19   11   19 1
    20   13   14 1
    21   13   20 1
    22   13   21 1
@<TRIPOS>MOLECULE
ZINC40999551
   24    25     0     0     0
SMALL
USER_CHARGES

@<TRIPOS>ATOM
      1 C1         -0.0166    1.3752    0.0096 C.ar      1 <0>        -0.1283
      2 C2          1.1699    2.0875    0.0021 C.ar      1 <0>        -0.0550
      3 C3          2.3826    1.4233   -0.0130 C.ar      1 <0>        -0.1474
      4 C4          2.4165    0.0414   -0.0207 C.ar      1 <0>         0.1289
      5 C5          1.2214   -0.6828   -0.0132 C.ar      1 <0>        -0.0736
      6 C6          0.0021   -0.0041    0.0020 C.ar      1 <0>        -0.0385
      7 C7          1.2485   -2.1608   -0.0213 C.2       1 <0>         0.1711
      8 N1          0.2396   -3.0209   -0.0217 N.2       1 <0>        -0.5050
      9 C8          0.4490   -4.3166   -0.0296 C.2       1 <0>        -0.0157
     10 C9          1.7204   -4.7973   -0.0376 C.2       1 <0>        -0.1924
     11 S1          2.6508   -3.2699   -0.0412 S.3       1 <0>         0.1284
     12 C10        -0.7182   -5.2698   -0.0294 C.3       1 <0>         0.0802
     13 N2         -1.1679   -5.4929    1.3512 N.4       1 <0>        -0.6349
     14 F1          3.6016   -0.6072   -0.0359 F         1 <0>        -0.1245
     15 H1         -0.9600    1.9007    0.0259 H         1 <0>         0.1448
     16 H2          1.1485    3.1673    0.0077 H         1 <0>         0.1473
     17 H3          3.3049    1.9852   -0.0191 H         1 <0>         0.1516
     18 H4         -0.9252   -0.5577    0.0082 H         1 <0>         0.1447
     19 H5          2.0715   -5.8187   -0.0443 H         1 <0>         0.2105
     20 H6         -1.5347   -4.8446   -0.6131 H         1 <0>         0.1471
     21 H7         -0.4125   -6.2188   -0.4698 H         1 <0>         0.1483
     22 H8         -1.4509   -4.6144    1.7589 H         1 <0>         0.4381
     23 H9         -1.9494   -6.1311    1.3514 H         1 <0>         0.4403
     24 H10        -0.4121   -5.8865    1.8916 H         1 <0>         0.4338
@<TRIPOS>BOND
     1    1    6 ar
     2    1    2 ar
     3    1   15 1
     4    2    3 ar
     5    2   16 1
     6    3    4 ar
     7    3   17 1
     8    4    5 ar
     9    4   14 1
    10    5    6 ar
    11    5    7 1
    12    6   18 1
    13    7   11 1
    14    7    8 2
    15    8    9 1
    16    9   10 2
    17    9   12 1
    18   10   11 1
    19   10   19 1
    20   12   13 1
    21   12   20 1
    22   12   21 1
    23   13   22 1
    24   13   23 1
    25   13   24 1
@<TRIPOS>MOLECULE
ZINC90415641
   30    31     0     0     0
SMALL
USER_CHARGES

@<TRIPOS>ATOM
      1 C1         -0.0187    1.5258    0.0104 C.3       1 <0>        -0.1504
      2 C2          0.0021   -0.0041    0.0020 C.3       1 <0>        -0.0907
      3 C3         -1.4117   -0.5257    0.0127 C.ar      1 <0>        -0.0742
      4 C4         -2.0500   -0.7657    1.2168 C.ar      1 <0>        -0.0814
      5 C5         -3.3476   -1.2445    1.2353 C.ar      1 <0>        -0.1161
      6 C6         -4.0141   -1.4859    0.0514 C.ar      1 <0>        -0.0683
      7 C7         -3.3763   -1.2455   -1.1661 C.ar      1 <0>        -0.0412
      8 C8         -2.0688   -0.7575   -1.1778 C.ar      1 <0>        -0.0832
      9 C9         -4.0844   -1.5025   -2.4386 C.2       1 <0>         0.1894
     10 N1         -5.3153   -1.9510   -2.6408 N.2       1 <0>        -0.5111
     11 C10        -5.7878   -2.1218   -3.8531 C.2       1 <0>        -0.0126
     12 C11        -5.0088   -1.8364   -4.9302 C.2       1 <0>        -0.1854
     13 S1         -3.5135   -1.2845   -4.1190 S.3       1 <0>         0.0926
     14 C12        -7.1913   -2.6337   -4.0510 C.3       1 <0>         0.0796
     15 N2         -7.1892   -4.1017   -3.9969 N.4       1 <0>        -0.6349
     16 H1          1.0039    1.9031    0.0027 H         1 <0>         0.0650
     17 H2         -0.5459    1.8868   -0.8726 H         1 <0>         0.0555
     18 H3         -0.5289    1.8773    0.9072 H         1 <0>         0.0587
     19 H4          0.5123   -0.3556   -0.8948 H         1 <0>         0.0764
     20 H5          0.5293   -0.3651    0.8851 H         1 <0>         0.0806
     21 H6         -1.5326   -0.5787    2.1462 H         1 <0>         0.1350
     22 H7         -3.8401   -1.4301    2.1784 H         1 <0>         0.1370
     23 H8         -5.0269   -1.8604    0.0671 H         1 <0>         0.1339
     24 H9         -1.5712   -0.5655   -2.1169 H         1 <0>         0.1276
     25 H10        -5.2325   -1.9166   -5.9838 H         1 <0>         0.2104
     26 H11        -7.8353   -2.2420   -3.2636 H         1 <0>         0.1471
     27 H12        -7.5639   -2.3065   -5.0216 H         1 <0>         0.1482
     28 H13        -6.5930   -4.4643   -4.7257 H         1 <0>         0.4337
     29 H14        -6.8442   -4.4047   -3.0984 H         1 <0>         0.4384
     30 H15        -8.1289   -4.4445   -4.1294 H         1 <0>         0.4403
@<TRIPOS>BOND
     1    1    2 1
     2    1   16 1
     3    1   17 1
     4    1   18 1
     5    2    3 1
     6    2   19 1
     7    2   20 1
     8    3    8 ar
     9    3    4 ar
    10    4    5 ar
    11    4   21 1
    12    5    6 ar
    13    5   22 1
    14    6    7 ar
    15    6   23 1
    16    7    8 ar
    17    7    9 1
    18    8   24 1
    19    9   13 1
    20    9   10 2
    21   10   11 1
    22   11   12 2
    23   11   14 1
    24   12   13 1
    25   12   25 1
    26   14   15 1
    27   14   26 1
    28   14   27 1
    29   15   28 1
    30   15   29 1
    31   15   30 1
@<TRIPOS>MOLECULE
ZINC40999557
   24    25     0     0     0
SMALL
USER_CHARGES

@<TRIPOS>ATOM
      1 C1         -0.0168    1.3914    0.0097 C.ar      1 <0>        -0.0781
      2 C2          1.1699    2.0945    0.0021 C.ar      1 <0>        -0.0864
      3 C3          2.3781    1.4186   -0.0130 C.ar      1 <0>        -0.0630
      4 C4          2.4033    0.0344   -0.0207 C.ar      1 <0>        -0.0915
      5 C5          1.2231   -0.6797   -0.0137 C.ar      1 <0>        -0.0576
      6 C6          0.0021   -0.0041    0.0020 C.ar      1 <0>        -0.0280
      7 C7         -1.2665   -0.7636    0.0105 C.2       1 <0>         0.1782
      8 N1         -1.4621   -2.0748    0.0109 N.2       1 <0>        -0.5052
      9 C8         -2.6719   -2.5832    0.0192 C.2       1 <0>        -0.0140
     10 C9         -3.7530   -1.7591    0.0276 C.2       1 <0>        -0.1804
     11 S1         -2.9498   -0.1611    0.0311 S.3       1 <0>         0.1041
     12 C10        -2.8624   -4.0781    0.0188 C.3       1 <0>         0.0794
     13 N2         -2.8141   -4.5776   -1.3618 N.4       1 <0>        -0.6350
     14 Br1         4.0005    2.3900   -0.0239 Br        1 <0>        -0.0222
     15 H1         -0.9587    1.9196    0.0260 H         1 <0>         0.1382
     16 H2          1.1565    3.1744    0.0077 H         1 <0>         0.1487
     17 H3          3.3488   -0.4874   -0.0325 H         1 <0>         0.1471
     18 H4          1.2439   -1.7595   -0.0204 H         1 <0>         0.1442
     19 H5         -4.8053   -2.0020    0.0350 H         1 <0>         0.2119
     20 H6         -2.0692   -4.5456    0.6022 H         1 <0>         0.1477
     21 H7         -3.8292   -4.3213    0.4595 H         1 <0>         0.1488
     22 H8         -3.5483   -4.1448   -1.9019 H         1 <0>         0.4339
     23 H9         -1.9191   -4.3524   -1.7698 H         1 <0>         0.4384
     24 H10        -2.9416   -5.5785   -1.3621 H         1 <0>         0.4408
@<TRIPOS>BOND
     1    1    6 ar
     2    1    2 ar
     3    1   15 1
     4    2    3 ar
     5    2   16 1
     6    3    4 ar
     7    3   14 1
     8    4    5 ar
     9    4   17 1
    10    5    6 ar
    11    5   18 1
    12    6    7 1
    13    7   11 1
    14    7    8 2
    15    8    9 1
    16    9   10 2
    17    9   12 1
    18   10   11 1
    19   10   19 1
    20   12   13 1
    21   12   20 1
    22   12   21 1
    23   13   22 1
    24   13   23 1
    25   13   24 1
@<TRIPOS>MOLECULE
ZINC35635876
   20    21     0     0     0
SMALL
USER_CHARGES

@<TRIPOS>ATOM
      1 C1         -0.0167    1.3768    0.0096 C.ar      1 <0>        -0.0854
      2 C2          1.1835    2.0880    0.0020 C.ar      1 <0>         0.0146
      3 C3          2.3964    1.3989   -0.0133 C.ar      1 <0>        -0.0611
      4 C4          2.4028    0.0179   -0.0208 C.ar      1 <0>        -0.0226
      5 C5          1.2087   -0.6826   -0.0136 C.ar      1 <0>        -0.0852
      6 C6          0.0021   -0.0041    0.0020 C.ar      1 <0>        -0.0210
      7 Cl1        -1.4903   -0.8908    0.0121 Cl        1 <0>        -0.0424
      8 Cl2         3.9111   -0.8414   -0.0398 Cl        1 <0>        -0.0413
      9 C7          1.1700    3.5671    0.0096 C.2       1 <0>         0.0940
     10 N1          2.1877    4.4061   -0.0011 N.2       1 <0>        -0.4270
     11 C8          1.9370    5.7100    0.0086 C.2       1 <0>        -0.0575
     12 C9          0.6188    6.1316    0.0295 C.2       1 <0>        -0.2142
     13 S1         -0.2268    4.6764    0.0276 S.3       1 <0>         0.1904
     14 C10         3.0328    6.6820   -0.0021 C.2       1 <0>         0.4016
     15 O1          4.1840    6.2985   -0.0206 O.2       1 <0>        -0.4333
     16 H1         -0.9585    1.9050    0.0259 H         1 <0>         0.1454
     17 H2          3.3285    1.9443   -0.0196 H         1 <0>         0.1546
     18 H3          1.2185   -1.7625   -0.0199 H         1 <0>         0.1525
     19 H4          0.2310    7.1395    0.0402 H         1 <0>         0.2140
     20 H5          2.8161    7.7400    0.0064 H         1 <0>         0.1238
@<TRIPOS>BOND
     1    1    6 ar
     2    1    2 ar
     3    1   16 1
     4    2    3 ar
     5    2    9 1
     6    3    4 ar
     7    3   17 1
     8    4    5 ar
     9    4    8 1
    10    5    6 ar
    11    5   18 1
    12    6    7 1
    13    9   13 1
    14    9   10 2
    15   10   11 1
    16   11   12 2
    17   11   14 1
    18   12   13 1
    19   12   19 1
    20   14   15 2
    21   14   20 1
@<TRIPOS>MOLECULE
ZINC71561132
   36    37     0     0     0
SMALL
USER_CHARGES

@<TRIPOS>ATOM
      1 C1         -0.0187    1.5258    0.0104 C.3       1 <0>        -0.1512
      2 C2          0.0021   -0.0041    0.0020 C.3       1 <0>        -0.0900
      3 C3          0.7421   -0.5109    1.2415 C.3       1 <0>        -0.1534
      4 C4         -1.4333   -0.5336    0.0129 C.3       1 <0>        -0.0889
      5 C5         -1.4159   -2.0348   -0.1192 C.ar      1 <0>        -0.0363
      6 C6         -1.4498   -2.6162   -1.3741 C.ar      1 <0>        -0.1151
      7 C7         -1.4337   -3.9898   -1.5019 C.ar      1 <0>        -0.0784
      8 C8         -1.3831   -4.7930   -0.3619 C.ar      1 <0>        -0.0521
      9 C9         -1.3491   -4.2003    0.9010 C.ar      1 <0>        -0.0587
     10 C10        -1.3604   -2.8253    1.0148 C.ar      1 <0>        -0.1186
     11 C11        -1.3660   -6.2659   -0.4915 C.2       1 <0>         0.1915
     12 N1         -1.3256   -7.1933    0.4548 N.2       1 <0>        -0.5130
     13 C12        -1.3162   -8.4712    0.1566 C.2       1 <0>        -0.0119
     14 C13        -1.3482   -8.8634   -1.1448 C.2       1 <0>        -0.1866
     15 S1         -1.4022   -7.2758   -1.9666 S.3       1 <0>         0.0904
     16 C14        -1.2694   -9.5022    1.2547 C.3       1 <0>         0.0795
     17 N2          0.1259   -9.7292    1.6542 N.4       1 <0>        -0.6349
     18 H1          1.0039    1.9031    0.0027 H         1 <0>         0.0590
     19 H2         -0.5459    1.8868   -0.8726 H         1 <0>         0.0574
     20 H3         -0.5289    1.8773    0.9072 H         1 <0>         0.0575
     21 H4          0.5123   -0.3556   -0.8948 H         1 <0>         0.0720
     22 H5          0.7568   -1.6008    1.2356 H         1 <0>         0.0551
     23 H6          1.7647   -0.1336    1.2338 H         1 <0>         0.0571
     24 H7          0.2319   -0.1594    2.1383 H         1 <0>         0.0568
     25 H8         -1.9156   -0.2570    0.9504 H         1 <0>         0.0804
     26 H9         -1.9862   -0.1019   -0.8214 H         1 <0>         0.0808
     27 H10        -1.4893   -1.9934   -2.2556 H         1 <0>         0.1369
     28 H11        -1.4605   -4.4425   -2.4821 H         1 <0>         0.1282
     29 H12        -1.3102   -4.8164    1.7871 H         1 <0>         0.1340
     30 H13        -1.3296   -2.3653    1.9914 H         1 <0>         0.1355
     31 H14        -1.3457   -9.8581   -1.5656 H         1 <0>         0.2099
     32 H15        -1.8395   -9.1455    2.1125 H         1 <0>         0.1469
     33 H16        -1.7008  -10.4363    0.8947 H         1 <0>         0.1480
     34 H17         0.1572  -10.4195    2.3894 H         1 <0>         0.4402
     35 H18         0.6536  -10.0594    0.8601 H         1 <0>         0.4337
     36 H19         0.5252   -8.8645    1.9874 H         1 <0>         0.4383
@<TRIPOS>BOND
     1    1    2 1
     2    1   18 1
     3    1   19 1
     4    1   20 1
     5    2    3 1
     6    2    4 1
     7    2   21 1
     8    3   22 1
     9    3   23 1
    10    3   24 1
    11    4    5 1
    12    4   25 1
    13    4   26 1
    14    5   10 ar
    15    5    6 ar
    16    6    7 ar
    17    6   27 1
    18    7    8 ar
    19    7   28 1
    20    8    9 ar
    21    8   11 1
    22    9   10 ar
    23    9   29 1
    24   10   30 1
    25   11   15 1
    26   11   12 2
    27   12   13 1
    28   13   14 2
    29   13   16 1
    30   14   15 1
    31   14   31 1
    32   16   17 1
    33   16   32 1
    34   16   33 1
    35   17   34 1
    36   17   35 1
    37   17   36 1
@<TRIPOS>MOLECULE
ZINC67771121
   22    23     0     0     0
SMALL
USER_CHARGES

@<TRIPOS>ATOM
      1 C1         -0.0167    1.3790    0.0096 C.ar      1 <0>        -0.0971
      2 C2          1.1666    2.0889    0.0021 C.ar      1 <0>        -0.0817
      3 C3          2.3850    1.4096   -0.0132 C.ar      1 <0>         0.0079
      4 C4          2.3990    0.0133   -0.0208 C.ar      1 <0>         0.0017
      5 C5          1.2069   -0.6859   -0.0132 C.ar      1 <0>        -0.0335
      6 C6          0.0021   -0.0041    0.0020 C.ar      1 <0>        -0.0817
      7 Cl1         1.2202   -2.4218   -0.0227 Cl        1 <0>        -0.0366
      8 Cl2         3.9096   -0.8419   -0.0404 Cl        1 <0>        -0.0150
      9 C7          3.6564    2.1650   -0.0217 C.2       1 <0>         0.0911
     10 N1          4.8959    1.7096   -0.0415 N.2       1 <0>        -0.4341
     11 C8          5.8910    2.5858   -0.0455 C.2       1 <0>        -0.0192
     12 C9          5.5999    3.9241   -0.0290 C.2       1 <0>        -0.1902
     13 S1          3.9168    3.9300   -0.0160 S.3       1 <0>         0.1947
     14 C10         7.2905    2.1263   -0.0668 C.2       1 <0>         0.5969
     15 O1          8.1969    2.9374   -0.0698 O.2       1 <0>        -0.5384
     16 N2          7.5665    0.8072   -0.0829 N.am      1 <0>        -0.8367
     17 H1         -0.9600    1.9047    0.0260 H         1 <0>         0.1501
     18 H2          1.1495    3.1688    0.0078 H         1 <0>         0.1436
     19 H3         -0.9271   -0.5544    0.0083 H         1 <0>         0.1500
     20 H4          6.2790    4.7639   -0.0289 H         1 <0>         0.2131
     21 H5          6.8436    0.1604   -0.0805 H         1 <0>         0.4088
     22 H6          8.4879    0.5047   -0.0969 H         1 <0>         0.4062
@<TRIPOS>BOND
     1    1    6 ar
     2    1    2 ar
     3    1   17 1
     4    2    3 ar
     5    2   18 1
     6    3    4 ar
     7    3    9 1
     8    4    5 ar
     9    4    8 1
    10    5    6 ar
    11    5    7 1
    12    6   19 1
    13    9   13 1
    14    9   10 2
    15   10   11 1
    16   11   12 2
    17   11   14 1
    18   12   13 1
    19   12   20 1
    20   14   15 2
    21   14   16 am
    22   16   21 1
    23   16   22 1
@<TRIPOS>MOLECULE
ZINC80803056
   30    31     0     0     0
SMALL
USER_CHARGES

@<TRIPOS>ATOM
      1 C1         -0.0187    1.5258    0.0104 C.3       1 <0>        -0.1806
      2 C2          0.0021   -0.0041    0.0020 C.3       1 <0>         0.1154
      3 H1          0.5293   -0.3651    0.8851 H         1 <0>         0.1519
      4 C3         -1.4117   -0.5257    0.0127 C.2       1 <0>         0.0005
      5 C4         -2.0766   -0.6667    1.1902 C.2       1 <0>        -0.1711
      6 S1         -3.6458   -1.2984    0.6094 S.3       1 <0>         0.1199
      7 C5         -3.2458   -1.3057   -1.1333 C.2       1 <0>         0.1717
      8 N1         -2.0050   -0.8395   -1.1149 N.2       1 <0>        -0.5261
      9 C6         -4.0771   -1.7163   -2.2853 C.ar      1 <0>        -0.0084
     10 C7         -3.5622   -1.6477   -3.5803 C.ar      1 <0>        -0.0583
     11 C8         -4.3433   -2.0325   -4.6522 C.ar      1 <0>        -0.0260
     12 C9         -5.6348   -2.4855   -4.4438 C.ar      1 <0>        -0.0721
     13 C10        -6.1511   -2.5557   -3.1611 C.ar      1 <0>        -0.0202
     14 C11        -5.3775   -2.1791   -2.0810 C.ar      1 <0>        -0.0761
     15 Cl1        -7.7719   -3.1245   -2.9096 Cl        1 <0>        -0.0281
     16 Cl2        -3.7046   -1.9474   -6.2642 Cl        1 <0>        -0.0334
     17 N2          0.6897   -0.4778   -1.2066 N.4       1 <0>        -0.5011
     18 C12         2.1002   -0.0703   -1.1590 C.3       1 <0>        -0.0523
     19 H2          1.0039    1.9031    0.0027 H         1 <0>         0.0906
     20 H3         -0.5459    1.8868   -0.8726 H         1 <0>         0.0844
     21 H4         -0.5289    1.8773    0.9072 H         1 <0>         0.1068
     22 H5         -1.7482   -0.4560    2.1973 H         1 <0>         0.2126
     23 H6         -2.5550   -1.2942   -3.7441 H         1 <0>         0.1493
     24 H7         -6.2420   -2.7850   -5.2852 H         1 <0>         0.1578
     25 H8         -5.7796   -2.2389   -1.0804 H         1 <0>         0.1470
     26 H9          0.6317   -1.4840   -1.2540 H         1 <0>         0.4317
     27 H10         2.5740   -0.5034   -0.2781 H         1 <0>         0.1247
     28 H11         2.6104   -0.4218   -2.0558 H         1 <0>         0.1290
     29 H12         2.1628    1.0167   -1.1079 H         1 <0>         0.1259
     30 H13         0.2511   -0.0769   -2.0221 H         1 <0>         0.4347
@<TRIPOS>BOND
     1    1    2 1
     2    1   19 1
     3    1   20 1
     4    1   21 1
     5    2    3 1
     6    2    4 1
     7    2   17 1
     8    4    8 1
     9    4    5 2
    10    5    6 1
    11    5   22 1
    12    6    7 1
    13    7    8 2
    14    7    9 1
    15    9   14 ar
    16    9   10 ar
    17   10   11 ar
    18   10   23 1
    19   11   12 ar
    20   11   16 1
    21   12   13 ar
    22   12   24 1
    23   13   14 ar
    24   13   15 1
    25   14   25 1
    26   17   18 1
    27   17   26 1
    28   17   30 1
    29   18   27 1
    30   18   28 1
    31   18   29 1
@<TRIPOS>MOLECULE
ZINC80803060
   30    31     0     0     0
SMALL
USER_CHARGES

@<TRIPOS>ATOM
      1 C1         -0.0187    1.5258    0.0104 C.3       1 <0>        -0.1806
      2 C2          0.0021   -0.0041    0.0020 C.3       1 <0>         0.1154
      3 H1          0.5293   -0.3651    0.8851 H         1 <0>         0.1518
      4 C3          0.7074   -0.4901   -1.2379 C.2       1 <0>         0.0006
      5 C4          2.0620   -0.6067   -1.2492 C.2       1 <0>        -0.1713
      6 S1          2.3278   -1.2026   -2.9144 S.3       1 <0>         0.1200
      7 C5          0.6107   -1.2312   -3.4120 C.2       1 <0>         0.1718
      8 N1          0.0149   -0.8065   -2.3066 N.2       1 <0>        -0.5262
      9 C6          0.0152   -1.6268   -4.7064 C.ar      1 <0>        -0.0085
     10 C7         -1.3669   -1.5680   -4.8886 C.ar      1 <0>        -0.0582
     11 C8         -1.9173   -1.9389   -6.0996 C.ar      1 <0>        -0.0261
     12 C9         -1.1007   -2.3683   -7.1318 C.ar      1 <0>        -0.0721
     13 C10         0.2714   -2.4287   -6.9569 C.ar      1 <0>        -0.0203
     14 C11         0.8337   -2.0550   -5.7522 C.ar      1 <0>        -0.0760
     15 Cl1         1.2874   -2.9691   -8.2566 Cl        1 <0>        -0.0281
     16 Cl2        -3.6367   -1.8669   -6.3281 Cl        1 <0>        -0.0334
     17 N2         -1.3761   -0.5125    0.0124 N.4       1 <0>        -0.5012
     18 C12        -2.0260   -0.1396    1.2760 C.3       1 <0>        -0.0522
     19 H2          1.0039    1.9031    0.0027 H         1 <0>         0.1068
     20 H3         -0.5459    1.8868   -0.8726 H         1 <0>         0.0844
     21 H4         -0.5289    1.8773    0.9072 H         1 <0>         0.0906
     22 H5          2.7788   -0.3973   -0.4690 H         1 <0>         0.2126
     23 H6         -2.0050   -1.2335   -4.0841 H         1 <0>         0.1493
     24 H7         -1.5356   -2.6577   -8.0770 H         1 <0>         0.1578
     25 H8          1.9045   -2.0979   -5.6185 H         1 <0>         0.1470
     26 H9         -1.8879   -0.1129   -0.7598 H         1 <0>         0.4346
     27 H10        -2.0386    0.9461    1.3715 H         1 <0>         0.1259
     28 H11        -3.0486   -0.5169    1.2837 H         1 <0>         0.1290
     29 H12        -1.4732   -0.5714    2.1102 H         1 <0>         0.1247
     30 H13        -1.3644   -1.5176   -0.0760 H         1 <0>         0.4318
@<TRIPOS>BOND
     1    1    2 1
     2    1   19 1
     3    1   20 1
     4    1   21 1
     5    2    3 1
     6    2    4 1
     7    2   17 1
     8    4    8 1
     9    4    5 2
    10    5    6 1
    11    5   22 1
    12    6    7 1
    13    7    8 2
    14    7    9 1
    15    9   14 ar
    16    9   10 ar
    17   10   11 ar
    18   10   23 1
    19   11   12 ar
    20   11   16 1
    21   12   13 ar
    22   12   24 1
    23   13   14 ar
    24   13   15 1
    25   14   25 1
    26   17   18 1
    27   17   26 1
    28   17   30 1
    29   18   27 1
    30   18   28 1
    31   18   29 1
@<TRIPOS>MOLECULE
ZINC61847350
   24    25     0     0     0
SMALL
USER_CHARGES

@<TRIPOS>ATOM
      1 C1         -0.0167    1.3816    0.0096 C.ar      1 <0>        -0.1447
      2 C2          1.1665    2.0904    0.0021 C.ar      1 <0>        -0.0435
      3 C3          2.3847    1.4101   -0.0131 C.ar      1 <0>        -0.0442
      4 C4          2.3986    0.0132   -0.0207 C.ar      1 <0>         0.0377
      5 C5          1.2084   -0.6858   -0.0131 C.ar      1 <0>        -0.1501
      6 C6          0.0021   -0.0041    0.0020 C.ar      1 <0>         0.1531
      7 F1         -1.1601   -0.6929    0.0094 F         1 <0>        -0.1158
      8 Cl1         3.9094   -0.8417   -0.0402 Cl        1 <0>        -0.0240
      9 C7          3.6558    2.1647   -0.0217 C.2       1 <0>         0.1721
     10 N1          4.9022    1.7133   -0.0415 N.2       1 <0>        -0.4871
     11 C8          5.9249    2.5363   -0.0470 C.2       1 <0>        -0.0150
     12 C9          5.7140    3.8789   -0.0323 C.2       1 <0>        -0.1771
     13 S1          3.9264    3.9321   -0.0160 S.3       1 <0>         0.1060
     14 C10         7.3305    1.9934   -0.0692 C.3       1 <0>         0.0792
     15 N2          7.7606    1.6918    1.3027 N.4       1 <0>        -0.6354
     16 H1         -0.9598    1.9076    0.0260 H         1 <0>         0.1592
     17 H2          1.1501    3.1703    0.0077 H         1 <0>         0.1491
     18 H3          1.2174   -1.7657   -0.0193 H         1 <0>         0.1604
     19 H4          6.4280    4.6892   -0.0335 H         1 <0>         0.2116
     20 H5          7.3588    1.0826   -0.6673 H         1 <0>         0.1469
     21 H6          7.9997    2.7352   -0.5050 H         1 <0>         0.1489
     22 H7          7.7344    2.5349    1.8564 H         1 <0>         0.4339
     23 H8          7.1411    1.0051    1.7061 H         1 <0>         0.4383
     24 H9          8.7017    1.3283    1.2879 H         1 <0>         0.4405
@<TRIPOS>BOND
     1    1    6 ar
     2    1    2 ar
     3    1   16 1
     4    2    3 ar
     5    2   17 1
     6    3    4 ar
     7    3    9 1
     8    4    5 ar
     9    4    8 1
    10    5    6 ar
    11    5   18 1
    12    6    7 1
    13    9   13 1
    14    9   10 2
    15   10   11 1
    16   11   12 2
    17   11   14 1
    18   12   13 1
    19   12   19 1
    20   14   15 1
    21   14   20 1
    22   14   21 1
    23   15   22 1
    24   15   23 1
    25   15   24 1
@<TRIPOS>MOLECULE
ZINC40414438
   27    28     0     0     0
SMALL
USER_CHARGES

@<TRIPOS>ATOM
      1 C1         -0.0178    1.4648    0.0101 C.3       1 <0>        -0.0467
      2 N1          0.0021   -0.0041    0.0020 N.4       1 <0>        -0.5085
      3 C2          0.6897   -0.4778   -1.2066 C.3       1 <0>         0.0767
      4 C3          0.7101   -1.9847   -1.2149 C.2       1 <0>        -0.0162
      5 C4         -0.2479   -2.6749   -1.8886 C.2       1 <0>        -0.2055
      6 S1          0.2643   -4.3566   -1.5598 S.3       1 <0>         0.1401
      7 C5          1.6945   -3.9578   -0.5637 C.2       1 <0>         0.1612
      8 N2          1.6559   -2.6327   -0.5762 N.2       1 <0>        -0.5009
      9 C6          2.6626   -4.8621    0.0926 C.ar      1 <0>        -0.0270
     10 C7          3.7182   -4.3364    0.8390 C.ar      1 <0>        -0.0551
     11 C8          4.6181   -5.1855    1.4489 C.ar      1 <0>        -0.1120
     12 C9          4.4766   -6.5563    1.3222 C.ar      1 <0>        -0.0736
     13 C10         3.4333   -7.0849    0.5843 C.ar      1 <0>        -0.1027
     14 C11         2.5216   -6.2463   -0.0268 C.ar      1 <0>        -0.0187
     15 Cl1         1.2082   -6.9111   -0.9469 Cl        1 <0>        -0.0290
     16 H1          1.0047    1.8421    0.0024 H         1 <0>         0.1249
     17 H2         -0.5450    1.8259   -0.8730 H         1 <0>         0.1248
     18 H3         -0.5280    1.8163    0.9069 H         1 <0>         0.1273
     19 H4          0.4901   -0.3383    0.8195 H         1 <0>         0.4327
     20 H5          0.1625   -0.1167   -2.0897 H         1 <0>         0.1447
     21 H6          1.7123   -0.1005   -1.2143 H         1 <0>         0.1437
     22 H7         -1.0862   -2.3090   -2.4630 H         1 <0>         0.2063
     23 H8          3.8304   -3.2669    0.9387 H         1 <0>         0.1445
     24 H9          5.4354   -4.7795    2.0264 H         1 <0>         0.1445
     25 H10         5.1845   -7.2163    1.8016 H         1 <0>         0.1468
     26 H11         3.3285   -8.1556    0.4893 H         1 <0>         0.1493
     27 H12        -0.9445   -0.3533    0.0092 H         1 <0>         0.4283
@<TRIPOS>BOND
     1    1    2 1
     2    1   16 1
     3    1   17 1
     4    1   18 1
     5    2    3 1
     6    2   19 1
     7    2   27 1
     8    3    4 1
     9    3   20 1
    10    3   21 1
    11    4    8 1
    12    4    5 2
    13    5    6 1
    14    5   22 1
    15    6    7 1
    16    7    8 2
    17    7    9 1
    18    9   14 ar
    19    9   10 ar
    20   10   11 ar
    21   10   23 1
    22   11   12 ar
    23   11   24 1
    24   12   13 ar
    25   12   25 1
    26   13   14 ar
    27   13   26 1
    28   14   15 1
@<TRIPOS>MOLECULE
ZINC11568390
   27    28     0     0     0
SMALL
USER_CHARGES
(1R)-1-[2-(4-chlorophenyl)thiazol-4-yl]ethanamine
@<TRIPOS>ATOM
      1 C1         -0.7527    1.5927   -1.2315 C.3       1 <0>        -0.1784
      2 C2         -0.0127    1.0858    0.0080 C.3       1 <0>         0.1214
      3 H1          0.0021   -0.0041    0.0020 H         1 <0>         0.1545
      4 C3         -0.7181    1.5718    1.2479 C.2       1 <0>        -0.0084
      5 C4         -1.1246    0.6828    2.1926 C.2       1 <0>        -0.1750
      6 S1         -1.8690    1.7872    3.3863 S.3       1 <0>         0.1010
      7 C5         -1.5584    3.3081    2.4990 C.2       1 <0>         0.1801
      8 N1         -0.9361    2.8545    1.4200 N.2       1 <0>        -0.5128
      9 C6         -1.8988    4.6980    2.8713 C.ar      1 <0>        -0.0380
     10 C7         -1.5549    5.7538    2.0260 C.ar      1 <0>        -0.0519
     11 C8         -1.8790    7.0480    2.3765 C.ar      1 <0>        -0.1114
     12 C9         -2.5353    7.3014    3.5692 C.ar      1 <0>        -0.0061
     13 C10        -2.8748    6.2583    4.4142 C.ar      1 <0>        -0.1055
     14 C11        -2.5602    4.9596    4.0720 C.ar      1 <0>        -0.0711
     15 Cl1        -2.9335    8.9334    4.0070 Cl        1 <0>        -0.0427
     16 H2         -0.7675    2.6825   -1.2255 H         1 <0>         0.0895
     17 H3         -0.2425    1.2411   -2.1283 H         1 <0>         0.0865
     18 H4         -1.7753    1.2154   -1.2238 H         1 <0>         0.1033
     19 H5         -1.0255   -0.3924    2.2159 H         1 <0>         0.2111
     20 H6         -1.0390    5.5577    1.0976 H         1 <0>         0.1433
     21 H7         -1.6163    7.8656    1.7215 H         1 <0>         0.1475
     22 H8         -3.3867    6.4620    5.3431 H         1 <0>         0.1495
     23 H9         -2.8249    4.1469    4.7322 H         1 <0>         0.1386
     24 H10         1.8559    1.3269    0.8378 H         1 <0>         0.4364
     25 H11         1.8599    1.2820   -0.8246 H         1 <0>         0.4393
     26 N2          1.3609    1.6192   -0.0031 N.4       1 <0>        -0.6428
     27 H12         1.3244    2.6449   -0.0309 H         1 <0>         0.4421
@<TRIPOS>BOND
     1    1    2 1
     2    1   16 1
     3    1   17 1
     4    1   18 1
     5    2    3 1
     6    2    4 1
     7    2   26 1
     8    4    8 1
     9    4    5 2
    10    5    6 1
    11    5   19 1
    12    6    7 1
    13    7    8 2
    14    7    9 1
    15    9   14 ar
    16    9   10 ar
    17   10   11 ar
    18   10   20 1
    19   11   12 ar
    20   11   21 1
    21   12   13 ar
    22   12   15 1
    23   13   14 ar
    24   13   22 1
    25   14   23 1
    26   24   26 1
    27   25   26 1
    28   26   27 1
@<TRIPOS>MOLECULE
ZINC11568391
   27    28     0     0     0
SMALL
USER_CHARGES
(1S)-1-[2-(4-chlorophenyl)thiazol-4-yl]ethanamine
@<TRIPOS>ATOM
      1 C1         -0.8757    3.0517   -1.0224 C.3       1 <0>        -0.1759
      2 C2         -0.7955    1.5269   -1.1198 C.3       1 <0>         0.1133
      3 H1         -1.8010    1.1074   -1.0883 H         1 <0>         0.1561
      4 C3         -0.1304    1.1406   -2.4157 C.2       1 <0>         0.0421
      5 C4          0.9649    0.3353   -2.4053 C.2       1 <0>        -0.2577
      6 S1          1.3059    0.2195   -4.1571 S.3       1 <0>         0.1065
      7 C5         -0.0383    1.2608   -4.7099 C.2       1 <0>         0.1940
      8 N1         -0.6043    1.5854   -3.5559 N.2       1 <0>        -0.4993
      9 C6         -0.4168    1.6541   -6.0841 C.ar      1 <0>        -0.0423
     10 C7         -1.5201    2.4818   -6.2970 C.ar      1 <0>        -0.0470
     11 C8         -1.8649    2.8501   -7.5809 C.ar      1 <0>        -0.1114
     12 C9         -1.1256    2.3908   -8.6580 C.ar      1 <0>        -0.0040
     13 C10        -0.0334    1.5646   -8.4532 C.ar      1 <0>        -0.1072
     14 C11         0.3244    1.1944   -7.1735 C.ar      1 <0>        -0.0696
     15 Cl1        -1.5703    2.8521  -10.2714 Cl        1 <0>        -0.0427
     16 H2          0.1298    3.4712   -1.0539 H         1 <0>         0.0805
     17 H3         -1.4574    3.4391   -1.8590 H         1 <0>         0.1146
     18 H4         -1.3568    3.3311   -0.0851 H         1 <0>         0.0880
     19 H5          1.4842   -0.1118   -1.5706 H         1 <0>         0.1986
     20 H6         -2.1000    2.8370   -5.4581 H         1 <0>         0.1464
     21 H7         -2.7160    3.4939   -7.7467 H         1 <0>         0.1487
     22 H8          0.5393    1.2092   -9.2971 H         1 <0>         0.1497
     23 H9          1.1763    0.5497   -7.0150 H         1 <0>         0.1383
     24 H10         0.0021   -0.0041    0.0020 H         1 <0>         0.4390
     25 H11         0.9253    1.3792    0.0006 H         1 <0>         0.4367
     26 N2         -0.0252    1.0139    0.0269 N.4       1 <0>        -0.6439
     27 H12        -0.4761    1.3157    0.8986 H         1 <0>         0.4484
@<TRIPOS>BOND
     1    1    2 1
     2    1   16 1
     3    1   17 1
     4    1   18 1
     5    2    3 1
     6    2    4 1
     7    2   26 1
     8    4    8 1
     9    4    5 2
    10    5    6 1
    11    5   19 1
    12    6    7 1
    13    7    8 2
    14    7    9 1
    15    9   14 ar
    16    9   10 ar
    17   10   11 ar
    18   10   20 1
    19   11   12 ar
    20   11   21 1
    21   12   13 ar
    22   12   15 1
    23   13   14 ar
    24   13   22 1
    25   14   23 1
    26   24   26 1
    27   25   26 1
    28   26   27 1
@<TRIPOS>MOLECULE
ZINC83969466
   31    32     0     0     0
SMALL
USER_CHARGES

@<TRIPOS>ATOM
      1 C1         -0.0173    1.4248    0.0099 C.3       1 <0>         0.0287
      2 O1          0.0021   -0.0041    0.0020 O.3       1 <0>        -0.3856
      3 C2          0.6734   -0.5824    1.1231 C.3       1 <0>         0.0914
      4 C3          0.6333   -2.0848    1.0124 C.ar      1 <0>        -0.0524
      5 C4         -0.4212   -2.7884    1.5666 C.ar      1 <0>        -0.0942
      6 C5         -0.4641   -4.1639    1.4683 C.ar      1 <0>        -0.0846
      7 C6          0.5591   -4.8454    0.8081 C.ar      1 <0>        -0.0387
      8 C7          1.6199   -4.1298    0.2513 C.ar      1 <0>        -0.0639
      9 C8          1.6482   -2.7541    0.3520 C.ar      1 <0>        -0.0996
     10 C9          0.5198   -6.3196    0.6994 C.2       1 <0>         0.1868
     11 N1          1.3846   -7.1442    0.1256 N.2       1 <0>        -0.5098
     12 C10         1.1896   -8.4419    0.1227 C.2       1 <0>        -0.0129
     13 C11         0.0827   -8.9621    0.7167 C.2       1 <0>        -0.1846
     14 S1         -0.7031   -7.4704    1.3135 S.3       1 <0>         0.0959
     15 C12         2.1906   -9.3541   -0.5384 C.3       1 <0>         0.0795
     16 N2          1.8940   -9.4481   -1.9740 N.4       1 <0>        -0.6349
     17 H1          1.0053    1.8021    0.0021 H         1 <0>         0.0457
     18 H2         -0.5445    1.7859   -0.8732 H         1 <0>         0.0916
     19 H3         -0.5275    1.7763    0.9067 H         1 <0>         0.0461
     20 H4          1.7103   -0.2468    1.1385 H         1 <0>         0.0657
     21 H5          0.1775   -0.2725    2.0430 H         1 <0>         0.0661
     22 H6         -1.2123   -2.2597    2.0775 H         1 <0>         0.1393
     23 H7         -1.2877   -4.7120    1.9016 H         1 <0>         0.1311
     24 H8          2.4151   -4.6514   -0.2605 H         1 <0>         0.1370
     25 H9          2.4664   -2.1987   -0.0823 H         1 <0>         0.1377
     26 H10        -0.2325   -9.9911    0.8067 H         1 <0>         0.2106
     27 H11         3.1946   -8.9526   -0.4003 H         1 <0>         0.1471
     28 H12         2.1308  -10.3454   -0.0893 H         1 <0>         0.1482
     29 H13         0.9647   -9.8197   -2.1018 H         1 <0>         0.4337
     30 H14         1.9494   -8.5304   -2.3897 H         1 <0>         0.4385
     31 H15         2.5643  -10.0588   -2.4166 H         1 <0>         0.4403
@<TRIPOS>BOND
     1    1    2 1
     2    1   17 1
     3    1   18 1
     4    1   19 1
     5    2    3 1
     6    3    4 1
     7    3   20 1
     8    3   21 1
     9    4    9 ar
    10    4    5 ar
    11    5    6 ar
    12    5   22 1
    13    6    7 ar
    14    6   23 1
    15    7    8 ar
    16    7   10 1
    17    8    9 ar
    18    8   24 1
    19    9   25 1
    20   10   14 1
    21   10   11 2
    22   11   12 1
    23   12   13 2
    24   12   15 1
    25   13   14 1
    26   13   26 1
    27   15   16 1
    28   15   27 1
    29   15   28 1
    30   16   29 1
    31   16   30 1
    32   16   31 1
@<TRIPOS>MOLECULE
ZINC43392653
   24    25     0     0     0
SMALL
USER_CHARGES

@<TRIPOS>ATOM
      1 C1         -0.0167    1.3773    0.0096 C.ar      1 <0>        -0.1069
      2 C2          1.1835    2.0893    0.0020 C.ar      1 <0>         0.0130
      3 C3          2.3977    1.4018   -0.0133 C.ar      1 <0>        -0.0854
      4 C4          2.4070    0.0204   -0.0208 C.ar      1 <0>         0.1056
      5 C5          1.2115   -0.6833   -0.0136 C.ar      1 <0>         0.0664
      6 C6          0.0021   -0.0041    0.0020 C.ar      1 <0>         0.1115
      7 F1         -1.1592   -0.6944    0.0094 F         1 <0>        -0.1037
      8 F2          1.2252   -2.0342   -0.0219 F         1 <0>        -0.1006
      9 F3          3.5820   -0.6462   -0.0356 F         1 <0>        -0.1055
     10 C7          1.1685    3.5677    0.0096 C.2       1 <0>         0.1644
     11 N1          2.1843    4.4195   -0.0011 N.2       1 <0>        -0.4948
     12 C8          1.9857    5.7169    0.0076 C.2       1 <0>        -0.0161
     13 C9          0.7184    6.2081    0.0279 C.2       1 <0>        -0.1720
     14 S1         -0.2246    4.6884    0.0277 S.3       1 <0>         0.1256
     15 C10         3.1607    6.6604   -0.0044 C.3       1 <0>         0.0792
     16 N2          3.6376    6.8661    1.3697 N.4       1 <0>        -0.6353
     17 H1         -0.9587    1.9053    0.0259 H         1 <0>         0.1601
     18 H2          3.3289    1.9489   -0.0196 H         1 <0>         0.1663
     19 H3          0.3758    7.2322    0.0374 H         1 <0>         0.2147
     20 H4          3.9626    6.2344   -0.6074 H         1 <0>         0.1489
     21 H5          2.8548    7.6162   -0.4298 H         1 <0>         0.1501
     22 H6          2.8953    7.2604    1.9278 H         1 <0>         0.4341
     23 H7          3.9207    5.9813    1.7634 H         1 <0>         0.4387
     24 H8          4.4243    7.4978    1.3616 H         1 <0>         0.4417
@<TRIPOS>BOND
     1    1    6 ar
     2    1    2 ar
     3    1   17 1
     4    2    3 ar
     5    2   10 1
     6    3    4 ar
     7    3   18 1
     8    4    5 ar
     9    4    9 1
    10    5    6 ar
    11    5    8 1
    12    6    7 1
    13   10   14 1
    14   10   11 2
    15   11   12 1
    16   12   13 2
    17   12   15 1
    18   13   14 1
    19   13   19 1
    20   15   16 1
    21   15   20 1
    22   15   21 1
    23   16   22 1
    24   16   23 1
    25   16   24 1
@<TRIPOS>MOLECULE
ZINC12370329
   22    23     0     0     0
SMALL
USER_CHARGES
[2-(3-chlorophenyl)thiazol-4-yl]methanol
@<TRIPOS>ATOM
      1 C1         -3.4918   -1.3828    0.0288 C.ar      1 <0>        -0.1050
      2 C2         -2.4414   -0.4879    0.0285 C.ar      1 <0>        -0.0673
      3 C3         -1.1278   -0.9580    0.0077 C.ar      1 <0>        -0.0016
      4 C4         -0.8846   -2.3321   -0.0020 C.ar      1 <0>        -0.0855
      5 C5         -1.9440   -3.2174    0.0033 C.ar      1 <0>        -0.0338
      6 C6         -3.2453   -2.7437    0.0187 C.ar      1 <0>        -0.0911
      7 Cl1        -1.6445   -4.9273   -0.0087 Cl        1 <0>        -0.0573
      8 C7          0.0021   -0.0041    0.0020 C.2       1 <0>         0.1503
      9 N1         -0.0159    1.3214    0.0093 N.2       1 <0>        -0.4885
     10 C8          1.0962    2.0180    0.0024 C.2       1 <0>         0.0425
     11 C9          2.2960    1.3786   -0.0125 C.2       1 <0>        -0.1595
     12 S1          1.7604   -0.3278   -0.0165 S.3       1 <0>         0.0185
     13 C10         1.0435    3.5240    0.0105 C.3       1 <0>         0.1504
     14 O1          2.3732    4.0472    0.0002 O.3       1 <0>        -0.5716
     15 H1         -4.5089   -1.0196    0.0411 H         1 <0>         0.1432
     16 H2         -2.6356    0.5744    0.0409 H         1 <0>         0.1430
     17 H3          0.1300   -2.7022   -0.0133 H         1 <0>         0.1384
     18 H4         -4.0710   -3.4398    0.0231 H         1 <0>         0.1411
     19 H5          3.2954    1.7878   -0.0203 H         1 <0>         0.2064
     20 H6          0.5086    3.8736   -0.8725 H         1 <0>         0.0678
     21 H7          0.5260    3.8647    0.9073 H         1 <0>         0.0678
     22 H8          2.4158    5.0133    0.0046 H         1 <0>         0.3919
@<TRIPOS>BOND
     1    1    6 ar
     2    1    2 ar
     3    1   15 1
     4    2    3 ar
     5    2   16 1
     6    3    4 ar
     7    3    8 1
     8    4    5 ar
     9    4   17 1
    10    5    6 ar
    11    5    7 1
    12    6   18 1
    13    8   12 1
    14    8    9 2
    15    9   10 1
    16   10   11 2
    17   10   13 1
    18   11   12 1
    19   11   19 1
    20   13   14 1
    21   13   20 1
    22   13   21 1
    23   14   22 1
@<TRIPOS>MOLECULE
ZINC62792832
   33    34     0     0     0
SMALL
USER_CHARGES

@<TRIPOS>ATOM
      1 C1         -0.0187    1.5258    0.0104 C.3       1 <0>        -0.1844
      2 C2          0.0021   -0.0041    0.0020 C.3       1 <0>         0.0244
      3 C3          0.7421   -0.5109    1.2415 C.3       1 <0>        -0.1856
      4 N1         -1.3761   -0.5125    0.0124 N.4       1 <0>        -0.5068
      5 C4         -1.3591   -1.9758   -0.1163 C.3       1 <0>         0.0739
      6 C5         -2.7729   -2.4974   -0.1056 C.2       1 <0>        -0.0087
      7 C6         -3.4210   -2.7315   -1.2773 C.2       1 <0>        -0.1776
      8 S1         -4.9987   -3.3160   -0.6707 S.3       1 <0>         0.1055
      9 C7         -4.6237   -3.1851    1.0727 C.2       1 <0>         0.1765
     10 N2         -3.3786   -2.7315    1.0351 N.2       1 <0>        -0.5016
     11 C8         -5.4718   -3.5029    2.2413 C.ar      1 <0>        -0.0381
     12 C9         -4.9792   -3.3199    3.5344 C.ar      1 <0>        -0.0308
     13 C10        -5.7741   -3.6172    4.6215 C.ar      1 <0>        -0.1410
     14 C11        -7.0601   -4.0974    4.4323 C.ar      1 <0>         0.1474
     15 C12        -7.5548   -4.2817    3.1500 C.ar      1 <0>        -0.0764
     16 C13        -6.7694   -3.9812    2.0553 C.ar      1 <0>        -0.0495
     17 Cl1        -9.1667   -4.8843    2.9211 Cl        1 <0>        -0.0220
     18 F1         -7.8344   -4.3875    5.5007 F         1 <0>        -0.1106
     19 H1          1.0039    1.9031    0.0027 H         1 <0>         0.1080
     20 H2         -0.5459    1.8868   -0.8726 H         1 <0>         0.0816
     21 H3         -0.5289    1.8773    0.9072 H         1 <0>         0.0815
     22 H4          0.5123   -0.3556   -0.8948 H         1 <0>         0.1406
     23 H5          0.2319   -0.1594    2.1383 H         1 <0>         0.0826
     24 H6          0.7568   -1.6008    1.2356 H         1 <0>         0.0819
     25 H7          1.7647   -0.1336    1.2338 H         1 <0>         0.1068
     26 H8         -1.8225   -0.2564    0.8803 H         1 <0>         0.4290
     27 H9         -0.8769   -2.2525   -1.0538 H         1 <0>         0.1462
     28 H10        -0.8062   -2.4075    0.7180 H         1 <0>         0.1470
     29 H11        -3.0784   -2.6003   -2.2930 H         1 <0>         0.2120
     30 H12        -3.9769   -2.9463    3.6835 H         1 <0>         0.1525
     31 H13        -5.3934   -3.4758    5.6222 H         1 <0>         0.1605
     32 H14        -7.1568   -4.1204    1.0568 H         1 <0>         0.1492
     33 H15        -1.8879   -0.1129   -0.7598 H         1 <0>         0.4262
@<TRIPOS>BOND
     1    1    2 1
     2    1   19 1
     3    1   20 1
     4    1   21 1
     5    2    3 1
     6    2    4 1
     7    2   22 1
     8    3   23 1
     9    3   24 1
    10    3   25 1
    11    4    5 1
    12    4   26 1
    13    4   33 1
    14    5    6 1
    15    5   27 1
    16    5   28 1
    17    6   10 1
    18    6    7 2
    19    7    8 1
    20    7   29 1
    21    8    9 1
    22    9   10 2
    23    9   11 1
    24   11   16 ar
    25   11   12 ar
    26   12   13 ar
    27   12   30 1
    28   13   14 ar
    29   13   31 1
    30   14   15 ar
    31   14   18 1
    32   15   16 ar
    33   15   17 1
    34   16   32 1
@<TRIPOS>MOLECULE
ZINC83344688
   25    26     0     0     0
SMALL
USER_CHARGES

@<TRIPOS>ATOM
      1 C1         -0.0169    1.3918    0.0097 C.ar      1 <0>        -0.0643
      2 C2          1.1684    2.0953    0.0022 C.ar      1 <0>        -0.1433
      3 C3          2.3804    1.4174   -0.0135 C.ar      1 <0>         0.1493
      4 C4          2.4034    0.0288   -0.0212 C.ar      1 <0>        -0.1489
      5 C5          1.2224   -0.6819   -0.0133 C.ar      1 <0>        -0.0439
      6 C6          0.0021   -0.0041    0.0020 C.ar      1 <0>        -0.0566
      7 C7         -1.2667   -0.7624    0.0105 C.2       1 <0>         0.1885
      8 N1         -1.4634   -2.0736    0.0109 N.2       1 <0>        -0.5114
      9 C8         -2.6743   -2.5808    0.0192 C.2       1 <0>        -0.0125
     10 C9         -3.7542   -1.7558    0.0277 C.2       1 <0>        -0.1844
     11 S1         -2.9495   -0.1586    0.0311 S.3       1 <0>         0.0941
     12 C10        -2.8664   -4.0755    0.0189 C.3       1 <0>         0.0795
     13 N2         -2.8186   -4.5750   -1.3618 N.4       1 <0>        -0.6350
     14 O1          3.5465    2.1143   -0.0218 O.3       1 <0>        -0.4948
     15 H1         -0.9589    1.9197    0.0260 H         1 <0>         0.1336
     16 H2          1.1546    3.1752    0.0081 H         1 <0>         0.1450
     17 H3          3.3478   -0.4948   -0.0337 H         1 <0>         0.1433
     18 H4          1.2411   -1.7617   -0.0196 H         1 <0>         0.1395
     19 H5         -4.8067   -1.9977    0.0347 H         1 <0>         0.2105
     20 H6         -2.0737   -4.5438    0.6023 H         1 <0>         0.1471
     21 H7         -3.8335   -4.3176    0.4596 H         1 <0>         0.1483
     22 H8         -3.5524   -4.1414   -1.9019 H         1 <0>         0.4338
     23 H9         -1.9234   -4.3508   -1.7698 H         1 <0>         0.4384
     24 H10         3.8930    2.3117    0.8591 H         1 <0>         0.4037
     25 H11        -2.9473   -5.5757   -1.3620 H         1 <0>         0.4404
@<TRIPOS>BOND
     1    1    6 ar
     2    1    2 ar
     3    1   15 1
     4    2    3 ar
     5    2   16 1
     6    3    4 ar
     7    3   14 1
     8    4    5 ar
     9    4   17 1
    10    5    6 ar
    11    5   18 1
    12    6    7 1
    13    7   11 1
    14    7    8 2
    15    8    9 1
    16    9   10 2
    17    9   12 1
    18   10   11 1
    19   10   19 1
    20   12   13 1
    21   12   20 1
    22   12   21 1
    23   13   22 1
    24   13   23 1
    25   13   25 1
    26   14   24 1
@<TRIPOS>MOLECULE
ZINC62938372
   34    36     0     0     0
SMALL
USER_CHARGES

@<TRIPOS>ATOM
      1 C1         -0.0167    1.3789    0.0096 C.ar      1 <0>        -0.1001
      2 C2          1.1669    2.0883    0.0021 C.ar      1 <0>        -0.0845
      3 C3          2.3850    1.4080   -0.0131 C.ar      1 <0>        -0.0151
      4 C4          2.3983    0.0126   -0.0207 C.ar      1 <0>        -0.0614
      5 C5          1.2074   -0.6859   -0.0131 C.ar      1 <0>        -0.0377
      6 C6          0.0021   -0.0041    0.0020 C.ar      1 <0>        -0.0837
      7 Cl1         1.2209   -2.4218   -0.0230 Cl        1 <0>        -0.0533
      8 C7          3.6568    2.1626   -0.0217 C.2       1 <0>         0.1673
      9 N1          4.8997    1.7087   -0.0415 N.2       1 <0>        -0.4932
     10 C8          5.9307    2.5323   -0.0471 C.2       1 <0>         0.0778
     11 C9          5.7109    3.8854   -0.0322 C.2       1 <0>        -0.1870
     12 S1          3.9233    3.9301   -0.0160 S.3       1 <0>         0.0652
     13 C10         7.3148    1.9990   -0.0689 C.ar      1 <0>         0.0250
     14 C11         8.4009    2.8723   -0.0685 C.ar      1 <0>        -0.1073
     15 C12         9.6864    2.3705   -0.0889 C.ar      1 <0>        -0.0877
     16 C13         9.8979    1.0037   -0.1101 C.ar      1 <0>        -0.1744
     17 C14         8.8236    0.1322   -0.1106 C.ar      1 <0>        -0.0900
     18 C15         7.5339    0.6227   -0.0841 C.ar      1 <0>        -0.0875
     19 C16        11.3040    0.4619   -0.1333 C.3       1 <0>         0.0484
     20 N2         11.7763    0.2667    1.2439 N.4       1 <0>        -0.6372
     21 H1         -0.9599    1.9048    0.0260 H         1 <0>         0.1468
     22 H2          1.1504    3.1681    0.0077 H         1 <0>         0.1355
     23 H3          3.3380   -0.5198   -0.0328 H         1 <0>         0.1448
     24 H4         -0.9271   -0.5545    0.0079 H         1 <0>         0.1444
     25 H5          6.4209    4.6993   -0.0338 H         1 <0>         0.2047
     26 H6          8.2370    3.9396   -0.0527 H         1 <0>         0.1375
     27 H7         10.5289    3.0463   -0.0886 H         1 <0>         0.1359
     28 H8          8.9945   -0.9340   -0.1276 H         1 <0>         0.1350
     29 H9          6.6959   -0.0586   -0.0800 H         1 <0>         0.1451
     30 H10        11.3171   -0.4920   -0.6606 H         1 <0>         0.1400
     31 H11        11.9573    1.1687   -0.6448 H         1 <0>         0.1400
     32 H12        11.7641    1.1497    1.7320 H         1 <0>         0.4344
     33 H13        11.1715   -0.3876    1.7174 H         1 <0>         0.4348
     34 H14        12.7177   -0.0960    1.2284 H         1 <0>         0.4376
@<TRIPOS>BOND
     1    1    6 ar
     2    1    2 ar
     3    1   21 1
     4    2    3 ar
     5    2   22 1
     6    3    4 ar
     7    3    8 1
     8    4    5 ar
     9    4   23 1
    10    5    6 ar
    11    5    7 1
    12    6   24 1
    13    8   12 1
    14    8    9 2
    15    9   10 1
    16   10   11 2
    17   10   13 1
    18   11   12 1
    19   11   25 1
    20   13   18 ar
    21   13   14 ar
    22   14   15 ar
    23   14   26 1
    24   15   16 ar
    25   15   27 1
    26   16   17 ar
    27   16   19 1
    28   17   18 ar
    29   17   28 1
    30   18   29 1
    31   19   20 1
    32   19   30 1
    33   19   31 1
    34   20   32 1
    35   20   33 1
    36   20   34 1
@<TRIPOS>MOLECULE
ZINC37425037
   21    22     0     0     0
SMALL
USER_CHARGES

@<TRIPOS>ATOM
      1 C1         -0.0167    1.3767    0.0096 C.ar      1 <0>        -0.0815
      2 C2          1.1838    2.0880    0.0020 C.ar      1 <0>         0.0118
      3 C3          2.3968    1.3986   -0.0133 C.ar      1 <0>        -0.0586
      4 C4          2.4030    0.0177   -0.0208 C.ar      1 <0>        -0.0241
      5 C5          1.2087   -0.6826   -0.0136 C.ar      1 <0>        -0.0834
      6 C6          0.0021   -0.0041    0.0020 C.ar      1 <0>        -0.0218
      7 Cl1        -1.4904   -0.8907    0.0115 Cl        1 <0>        -0.0418
      8 Cl2         3.9111   -0.8418   -0.0398 Cl        1 <0>        -0.0414
      9 C7          1.1704    3.5666    0.0095 C.2       1 <0>         0.1467
     10 N1          2.1871    4.4172   -0.0011 N.2       1 <0>        -0.4769
     11 C8          1.9902    5.7146    0.0078 C.2       1 <0>         0.0388
     12 C9          0.7233    6.2074    0.0284 C.2       1 <0>        -0.1722
     13 S1         -0.2215    4.6888    0.0276 S.3       1 <0>         0.0495
     14 C10         3.1665    6.6566   -0.0042 C.3       1 <0>         0.0349
     15 Cl3         3.6112    7.0409   -1.7087 Cl        1 <0>        -0.1640
     16 H1         -0.9585    1.9050    0.0259 H         1 <0>         0.1454
     17 H2          3.3290    1.9439   -0.0196 H         1 <0>         0.1548
     18 H3          1.2185   -1.7626   -0.0199 H         1 <0>         0.1527
     19 H4          0.3819    7.2320    0.0385 H         1 <0>         0.2068
     20 H5          2.9012    7.5757    0.5181 H         1 <0>         0.1128
     21 H6          4.0136    6.1864    0.4951 H         1 <0>         0.1114
@<TRIPOS>BOND
     1    1    6 ar
     2    1    2 ar
     3    1   16 1
     4    2    3 ar
     5    2    9 1
     6    3    4 ar
     7    3   17 1
     8    4    5 ar
     9    4    8 1
    10    5    6 ar
    11    5   18 1
    12    6    7 1
    13    9   13 1
    14    9   10 2
    15   10   11 1
    16   11   12 2
    17   11   14 1
    18   12   13 1
    19   12   19 1
    20   14   15 1
    21   14   20 1
    22   14   21 1
@<TRIPOS>MOLECULE
ZINC35154785
   27    28     0     0     0
SMALL
USER_CHARGES

@<TRIPOS>ATOM
      1 C1         -0.0178    1.4648    0.0101 C.3       1 <0>        -0.0468
      2 N1          0.0021   -0.0041    0.0020 N.4       1 <0>        -0.5085
      3 C2         -1.3761   -0.5125    0.0124 C.3       1 <0>         0.0767
      4 C3         -1.3556   -2.0194    0.0042 C.2       1 <0>        -0.0101
      5 C4         -1.4429   -2.7078    1.1730 C.2       1 <0>        -0.1818
      6 S1         -1.3720   -4.3904    0.5710 S.3       1 <0>         0.0972
      7 C5         -1.2342   -3.9942   -1.1671 C.2       1 <0>         0.1843
      8 N2         -1.2590   -2.6692   -1.1321 N.2       1 <0>        -0.5085
      9 C6         -1.1270   -4.9004   -2.3304 C.ar      1 <0>        -0.0553
     10 C7         -1.0215   -4.3757   -3.6194 C.ar      1 <0>        -0.0330
     11 C8         -0.9218   -5.2254   -4.7011 C.ar      1 <0>        -0.1555
     12 C9         -0.9268   -6.5980   -4.5099 C.ar      1 <0>         0.1394
     13 C10        -1.0314   -7.1243   -3.2321 C.ar      1 <0>        -0.1499
     14 C11        -1.1253   -6.2834   -2.1430 C.ar      1 <0>        -0.0532
     15 F1         -0.8298   -7.4260   -5.5730 F         1 <0>        -0.1239
     16 H1          1.0047    1.8421    0.0024 H         1 <0>         0.1278
     17 H2         -0.5450    1.8259   -0.8730 H         1 <0>         0.1253
     18 H3         -0.5280    1.8163    0.9069 H         1 <0>         0.1251
     19 H4          0.4744   -0.3295   -0.8281 H         1 <0>         0.4332
     20 H5         -1.8863   -0.1610    0.9092 H         1 <0>         0.1460
     21 H6         -1.9033   -0.1515   -0.8706 H         1 <0>         0.1452
     22 H7         -1.5304   -2.3405    2.1848 H         1 <0>         0.2108
     23 H8         -1.0182   -3.3062   -3.7695 H         1 <0>         0.1453
     24 H9         -0.8401   -4.8204   -5.6989 H         1 <0>         0.1503
     25 H10        -1.0348   -8.1947   -3.0886 H         1 <0>         0.1521
     26 H11        -1.2018   -6.6945   -1.1472 H         1 <0>         0.1394
     27 H12         0.4901   -0.3383    0.8195 H         1 <0>         0.4285
@<TRIPOS>BOND
     1    1    2 1
     2    1   16 1
     3    1   17 1
     4    1   18 1
     5    2    3 1
     6    2   19 1
     7    2   27 1
     8    3    4 1
     9    3   20 1
    10    3   21 1
    11    4    8 1
    12    4    5 2
    13    5    6 1
    14    5   22 1
    15    6    7 1
    16    7    8 2
    17    7    9 1
    18    9   14 ar
    19    9   10 ar
    20   10   11 ar
    21   10   23 1
    22   11   12 ar
    23   11   24 1
    24   12   13 ar
    25   12   15 1
    26   13   14 ar
    27   13   25 1
    28   14   26 1
@<TRIPOS>MOLECULE
ZINC40414553
   30    31     0     0     0
SMALL
USER_CHARGES

@<TRIPOS>ATOM
      1 C1         -0.0187    1.5258    0.0104 C.3       1 <0>        -0.1901
      2 C2          0.0021   -0.0041    0.0020 C.3       1 <0>        -0.0095
      3 N1         -1.3761   -0.5125    0.0124 N.4       1 <0>        -0.5090
      4 C3         -1.3562   -1.9814    0.0044 C.3       1 <0>         0.0779
      5 C4         -2.7700   -2.5030    0.0151 C.2       1 <0>        -0.0097
      6 C5         -3.3826   -2.8334   -1.1527 C.2       1 <0>        -0.1809
      7 S1         -4.9779   -3.3700   -0.5479 S.3       1 <0>         0.0997
      8 C6         -4.6555   -3.0964    1.1893 C.2       1 <0>         0.1804
      9 N2         -3.4099   -2.6442    1.1521 N.2       1 <0>        -0.5060
     10 C7         -5.5384   -3.3196    2.3542 C.ar      1 <0>        -0.0386
     11 C8         -5.0853   -3.0307    3.6421 C.ar      1 <0>        -0.0508
     12 C9         -5.9136   -3.2405    4.7250 C.ar      1 <0>        -0.1112
     13 C10        -7.1923   -3.7372    4.5359 C.ar      1 <0>        -0.0059
     14 C11        -7.6473   -4.0261    3.2604 C.ar      1 <0>        -0.1060
     15 C12        -6.8301   -3.8145    2.1694 C.ar      1 <0>        -0.0711
     16 Cl1        -8.2290   -3.9993    5.9036 Cl        1 <0>        -0.0433
     17 H1          1.0039    1.9031    0.0027 H         1 <0>         0.1083
     18 H2         -0.5459    1.8868   -0.8726 H         1 <0>         0.0805
     19 H3         -0.5289    1.8773    0.9072 H         1 <0>         0.0807
     20 H4          0.5123   -0.3556   -0.8948 H         1 <0>         0.1326
     21 H5          0.5293   -0.3651    0.8851 H         1 <0>         0.1327
     22 H6         -1.8484   -0.1871    0.8426 H         1 <0>         0.4309
     23 H7         -0.8460   -2.3329   -0.8924 H         1 <0>         0.1460
     24 H8         -0.8290   -2.3425    0.8874 H         1 <0>         0.1452
     25 H9         -3.0095   -2.7850   -2.1650 H         1 <0>         0.2111
     26 H10        -4.0879   -2.6440    3.7908 H         1 <0>         0.1444
     27 H11        -5.5641   -3.0174    5.7222 H         1 <0>         0.1477
     28 H12        -8.6453   -4.4140    3.1191 H         1 <0>         0.1494
     29 H13        -7.1877   -4.0356    1.1746 H         1 <0>         0.1385
     30 H14        -1.8641   -0.1783   -0.8050 H         1 <0>         0.4261
@<TRIPOS>BOND
     1    1    2 1
     2    1   17 1
     3    1   18 1
     4    1   19 1
     5    2    3 1
     6    2   20 1
     7    2   21 1
     8    3    4 1
     9    3   22 1
    10    3   30 1
    11    4    5 1
    12    4   23 1
    13    4   24 1
    14    5    9 1
    15    5    6 2
    16    6    7 1
    17    6   25 1
    18    7    8 1
    19    8    9 2
    20    8   10 1
    21   10   15 ar
    22   10   11 ar
    23   11   12 ar
    24   11   26 1
    25   12   13 ar
    26   12   27 1
    27   13   14 ar
    28   13   16 1
    29   14   15 ar
    30   14   28 1
    31   15   29 1
@<TRIPOS>MOLECULE
ZINC61798172
   22    23     0     0     0
SMALL
USER_CHARGES

@<TRIPOS>ATOM
      1 C1         -0.0167    1.3789    0.0096 C.ar      1 <0>        -0.1028
      2 C2          1.1669    2.0883    0.0021 C.ar      1 <0>        -0.0870
      3 C3          2.3851    1.4080   -0.0132 C.ar      1 <0>        -0.0068
      4 C4          2.3983    0.0125   -0.0208 C.ar      1 <0>        -0.0622
      5 C5          1.2074   -0.6859   -0.0132 C.ar      1 <0>        -0.0368
      6 C6          0.0021   -0.0041    0.0020 C.ar      1 <0>        -0.0892
      7 Cl1         1.2209   -2.4218   -0.0227 Cl        1 <0>        -0.0564
      8 C7          3.6567    2.1625   -0.0218 C.2       1 <0>         0.1576
      9 N1          4.9028    1.7109   -0.0416 N.2       1 <0>        -0.4905
     10 C8          5.9256    2.5330   -0.0472 C.2       1 <0>         0.0540
     11 C9          5.7152    3.8762   -0.0324 C.2       1 <0>        -0.1836
     12 S1          3.9276    3.9299   -0.0161 S.3       1 <0>         0.0374
     13 C10         7.3309    1.9894   -0.0694 C.3       1 <0>         0.0495
     14 C11         7.5152    1.0596    1.0568 C.1       1 <0>         0.2098
     15 N2          7.6574    0.3420    1.9259 N.1       1 <0>        -0.4233
     16 H1         -0.9599    1.9048    0.0260 H         1 <0>         0.1440
     17 H2          1.1504    3.1681    0.0077 H         1 <0>         0.1350
     18 H3          3.3379   -0.5198   -0.0330 H         1 <0>         0.1465
     19 H4         -0.9271   -0.5545    0.0080 H         1 <0>         0.1416
     20 H5          6.4295    4.6862   -0.0341 H         1 <0>         0.2082
     21 H6          7.5016    1.4618   -1.0078 H         1 <0>         0.1267
     22 H7          8.0403    2.8123    0.0190 H         1 <0>         0.1282
@<TRIPOS>BOND
     1    1    6 ar
     2    1    2 ar
     3    1   16 1
     4    2    3 ar
     5    2   17 1
     6    3    4 ar
     7    3    8 1
     8    4    5 ar
     9    4   18 1
    10    5    6 ar
    11    5    7 1
    12    6   19 1
    13    8   12 1
    14    8    9 2
    15    9   10 1
    16   10   11 2
    17   10   13 1
    18   11   12 1
    19   11   20 1
    20   13   14 1
    21   13   21 1
    22   13   22 1
    23   14   15 3
@<TRIPOS>MOLECULE
ZINC70842530
   28    29     0     0     0
SMALL
USER_CHARGES

@<TRIPOS>ATOM
      1 C1         -0.0187    1.5258    0.0104 C.3       1 <0>        -0.1774
      2 C2          0.0021   -0.0041    0.0020 C.3       1 <0>         0.1173
      3 H1         -1.0205   -0.3814    0.0098 H         1 <0>         0.1536
      4 C3          0.7309   -0.5033    1.2229 C.2       1 <0>        -0.0082
      5 C4          0.1265   -1.3832    2.0640 C.2       1 <0>        -0.1740
      6 S1          1.4143   -1.6118    3.2838 S.3       1 <0>         0.1033
      7 C5          2.6143   -0.5132    2.5422 C.2       1 <0>         0.1806
      8 N1          1.9528   -0.0931    1.4727 N.2       1 <0>        -0.5110
      9 C6          3.9783   -0.1695    2.9965 C.ar      1 <0>        -0.0387
     10 C7          4.7553    0.7279    2.2617 C.ar      1 <0>        -0.0435
     11 C8          6.0267    1.0466    2.6884 C.ar      1 <0>        -0.1343
     12 C9          6.5357    0.4761    3.8475 C.ar      1 <0>         0.1573
     13 C10         5.7659   -0.4176    4.5821 C.ar      1 <0>        -0.0665
     14 C11         4.4905   -0.7369    4.1644 C.ar      1 <0>        -0.0622
     15 Cl1         6.4076   -1.1282    6.0302 Cl        1 <0>        -0.0304
     16 O1          7.7897    0.7922    4.2642 O.3       1 <0>        -0.4819
     17 N2          0.6897   -0.4778   -1.2066 N.4       1 <0>        -0.6342
     18 H2          1.0039    1.9031    0.0027 H         1 <0>         0.0899
     19 H3         -0.5459    1.8868   -0.8726 H         1 <0>         0.0867
     20 H4         -0.5289    1.8773    0.9072 H         1 <0>         0.1039
     21 H5         -0.8587   -1.8224    2.0107 H         1 <0>         0.2116
     22 H6          4.3608    1.1717    1.3596 H         1 <0>         0.1452
     23 H7          6.6280    1.7408    2.1201 H         1 <0>         0.1531
     24 H8          3.8908   -1.4281    4.7379 H         1 <0>         0.1433
     25 H9          7.8264    1.5544    4.8582 H         1 <0>         0.4058
     26 H10         1.6363   -0.1286   -1.2138 H         1 <0>         0.4380
     27 H11         0.7033   -1.4867   -1.2121 H         1 <0>         0.4349
     28 H12         0.2017   -0.1436   -2.0240 H         1 <0>         0.4377
@<TRIPOS>BOND
     1    1    2 1
     2    1   18 1
     3    1   19 1
     4    1   20 1
     5    2    3 1
     6    2    4 1
     7    2   17 1
     8    4    8 1
     9    4    5 2
    10    5    6 1
    11    5   21 1
    12    6    7 1
    13    7    8 2
    14    7    9 1
    15    9   14 ar
    16    9   10 ar
    17   10   11 ar
    18   10   22 1
    19   11   12 ar
    20   11   23 1
    21   12   13 ar
    22   12   16 1
    23   13   14 ar
    24   13   15 1
    25   14   24 1
    26   16   25 1
    27   17   26 1
    28   17   27 1
    29   17   28 1
@<TRIPOS>MOLECULE
ZINC70842525
   28    29     0     0     0
SMALL
USER_CHARGES

@<TRIPOS>ATOM
      1 C1         -0.0187    1.5258    0.0104 C.3       1 <0>        -0.1749
      2 C2          0.0021   -0.0041    0.0020 C.3       1 <0>         0.1095
      3 H1         -1.0205   -0.3814    0.0098 H         1 <0>         0.1582
      4 C3          0.7074   -0.4901   -1.2379 C.2       1 <0>         0.0406
      5 C4          1.7598   -1.3434   -1.1319 C.2       1 <0>        -0.2595
      6 S1          2.1781   -1.5677   -2.8562 S.3       1 <0>         0.1104
      7 C5          0.9088   -0.5029   -3.5285 C.2       1 <0>         0.1946
      8 N1          0.3029   -0.0940   -2.4223 N.2       1 <0>        -0.4978
      9 C6          0.6119   -0.1715   -4.9381 C.ar      1 <0>        -0.0431
     10 C7         -0.4351    0.6988   -5.2468 C.ar      1 <0>        -0.0385
     11 C8         -0.7090    1.0061   -6.5623 C.ar      1 <0>        -0.1344
     12 C9          0.0545    0.4511   -7.5806 C.ar      1 <0>         0.1597
     13 C10         1.0976   -0.4156   -7.2781 C.ar      1 <0>        -0.0681
     14 C11         1.3814   -0.7234   -5.9636 C.ar      1 <0>        -0.0605
     15 Cl1         2.0486   -1.1071   -8.5553 Cl        1 <0>        -0.0311
     16 O1         -0.2193    0.7559   -8.8761 O.3       1 <0>        -0.4814
     17 N2          0.7126   -0.4907    1.1921 N.4       1 <0>        -0.6351
     18 H2          1.0039    1.9031    0.0027 H         1 <0>         0.0808
     19 H3         -0.5459    1.8868   -0.8726 H         1 <0>         0.1151
     20 H4         -0.5289    1.8773    0.9072 H         1 <0>         0.0885
     21 H5          2.2170   -1.7682   -0.2505 H         1 <0>         0.1991
     22 H6         -1.0302    1.1306   -4.4556 H         1 <0>         0.1484
     23 H7         -1.5190    1.6794   -6.8014 H         1 <0>         0.1544
     24 H8          2.1950   -1.3936   -5.7285 H         1 <0>         0.1430
     25 H9          0.2576    1.5291   -9.2075 H         1 <0>         0.4057
     26 H10         0.2403   -0.1653    2.0223 H         1 <0>         0.4443
     27 H11         0.7262   -1.4996    1.1866 H         1 <0>         0.4369
     28 H12         1.6592   -0.1415    1.1850 H         1 <0>         0.4352
@<TRIPOS>BOND
     1    1    2 1
     2    1   18 1
     3    1   19 1
     4    1   20 1
     5    2    3 1
     6    2    4 1
     7    2   17 1
     8    4    8 1
     9    4    5 2
    10    5    6 1
    11    5   21 1
    12    6    7 1
    13    7    8 2
    14    7    9 1
    15    9   14 ar
    16    9   10 ar
    17   10   11 ar
    18   10   22 1
    19   11   12 ar
    20   11   23 1
    21   12   13 ar
    22   12   16 1
    23   13   14 ar
    24   13   15 1
    25   14   24 1
    26   16   25 1
    27   17   26 1
    28   17   27 1
    29   17   28 1
@<TRIPOS>MOLECULE
ZINC41010073
   33    34     0     0     0
SMALL
USER_CHARGES

@<TRIPOS>ATOM
      1 C1         -0.0187    1.5258    0.0104 C.3       1 <0>        -0.1565
      2 C2          0.0021   -0.0041    0.0020 C.3       1 <0>        -0.1515
      3 C3          0.7182   -0.4975   -1.2568 C.3       1 <0>        -0.0103
      4 N1          0.7381   -1.9663   -1.2649 N.4       1 <0>        -0.5086
      5 C4          1.4257   -2.4401   -2.4735 C.3       1 <0>         0.0780
      6 C5          1.4462   -3.9469   -2.4818 C.2       1 <0>        -0.0160
      7 C6          0.4881   -4.6371   -3.1554 C.2       1 <0>        -0.2006
      8 S1          0.9999   -6.3188   -2.8261 S.3       1 <0>         0.1461
      9 C7          2.4300   -5.9200   -1.8298 C.2       1 <0>         0.1551
     10 N2          2.3920   -4.5950   -1.8431 N.2       1 <0>        -0.4949
     11 C8          3.3974   -6.8244   -1.1724 C.ar      1 <0>        -0.0114
     12 C9          4.4530   -6.2985   -0.4260 C.ar      1 <0>        -0.0528
     13 C10         5.3524   -7.1471    0.1855 C.ar      1 <0>        -0.0973
     14 C11         5.2107   -8.5179    0.0610 C.ar      1 <0>        -0.0684
     15 C12         4.1670   -9.0476   -0.6777 C.ar      1 <0>        -0.0286
     16 C13         3.2556   -8.2083   -1.2908 C.ar      1 <0>        -0.0191
     17 Cl1         1.9421   -8.8731   -2.2109 Cl        1 <0>        -0.0082
     18 Cl2         3.9984  -10.7687   -0.8291 Cl        1 <0>        -0.0226
     19 H1          1.0039    1.9031    0.0027 H         1 <0>         0.0676
     20 H2         -0.5459    1.8868   -0.8726 H         1 <0>         0.0674
     21 H3         -0.5289    1.8773    0.9072 H         1 <0>         0.0776
     22 H4          0.5293   -0.3651    0.8851 H         1 <0>         0.0862
     23 H5         -1.0205   -0.3814    0.0098 H         1 <0>         0.0861
     24 H6          0.1910   -0.1364   -2.1398 H         1 <0>         0.1329
     25 H7          1.7408   -0.1202   -1.2645 H         1 <0>         0.1331
     26 H8          1.2261   -2.3006   -0.4474 H         1 <0>         0.4306
     27 H9          0.8985   -2.0790   -3.3565 H         1 <0>         0.1453
     28 H10         2.4483   -2.0628   -2.4812 H         1 <0>         0.1443
     29 H11        -0.3501   -4.2713   -3.7299 H         1 <0>         0.2077
     30 H12         4.5657   -5.2289   -0.3277 H         1 <0>         0.1513
     31 H13         6.1695   -6.7403    0.7628 H         1 <0>         0.1546
     32 H14         5.9179   -9.1773    0.5420 H         1 <0>         0.1567
     33 H15        -0.2085   -2.3156   -1.2577 H         1 <0>         0.4261
@<TRIPOS>BOND
     1    1    2 1
     2    1   19 1
     3    1   20 1
     4    1   21 1
     5    2    3 1
     6    2   22 1
     7    2   23 1
     8    3    4 1
     9    3   24 1
    10    3   25 1
    11    4    5 1
    12    4   26 1
    13    4   33 1
    14    5    6 1
    15    5   27 1
    16    5   28 1
    17    6   10 1
    18    6    7 2
    19    7    8 1
    20    7   29 1
    21    8    9 1
    22    9   10 2
    23    9   11 1
    24   11   16 ar
    25   11   12 ar
    26   12   13 ar
    27   12   30 1
    28   13   14 ar
    29   13   31 1
    30   14   15 ar
    31   14   32 1
    32   15   16 ar
    33   15   18 1
    34   16   17 1
@<TRIPOS>MOLECULE
ZINC41010172
   31    33     0     0     0
SMALL
USER_CHARGES

@<TRIPOS>ATOM
      1 C1         -0.0168    1.3912    0.0097 C.ar      1 <0>        -0.0691
      2 C2          1.1698    2.0950    0.0021 C.ar      1 <0>        -0.0921
      3 C3          2.3782    1.4201   -0.0130 C.ar      1 <0>        -0.0057
      4 C4          2.4040    0.0343   -0.0212 C.ar      1 <0>        -0.0364
      5 C5          1.2229   -0.6801   -0.0142 C.ar      1 <0>        -0.0465
      6 C6          0.0021   -0.0041    0.0020 C.ar      1 <0>        -0.0229
      7 C7         -1.2666   -0.7634    0.0105 C.2       1 <0>         0.1731
      8 N1         -1.4624   -2.0745    0.0109 N.2       1 <0>        -0.5011
      9 C8         -2.6723   -2.5828    0.0192 C.2       1 <0>        -0.0106
     10 C9         -3.7533   -1.7585    0.0276 C.2       1 <0>        -0.1763
     11 S1         -2.9498   -0.1607    0.0311 S.3       1 <0>         0.1106
     12 C10        -2.8631   -4.0777    0.0188 C.3       1 <0>         0.0827
     13 N2         -2.8149   -4.5771   -1.3618 N.4       1 <0>        -0.4785
     14 C11        -3.0008   -6.0343   -1.3622 C.3       1 <0>        -0.0844
     15 C12        -1.8401   -6.8945   -1.8659 C.3       1 <0>        -0.1533
     16 C13        -3.0996   -6.7335   -2.7195 C.3       1 <0>        -0.1538
     17 Cl1         3.9239   -0.8042   -0.0408 Cl        1 <0>        -0.0256
     18 Cl2         3.8672    2.3126   -0.0224 Cl        1 <0>        -0.0215
     19 H1         -0.9588    1.9192    0.0260 H         1 <0>         0.1453
     20 H2          1.1558    3.1749    0.0077 H         1 <0>         0.1591
     21 H3          1.2436   -1.7599   -0.0213 H         1 <0>         0.1543
     22 H4         -4.8057   -2.0012    0.0350 H         1 <0>         0.2129
     23 H5         -2.0700   -4.5453    0.6022 H         1 <0>         0.1462
     24 H6         -3.8299   -4.3207    0.4596 H         1 <0>         0.1469
     25 H7         -3.5491   -4.1442   -1.9019 H         1 <0>         0.4268
     26 H8         -3.6048   -6.4313   -0.5463 H         1 <0>         0.1797
     27 H9         -0.9385   -6.3791   -2.1970 H         1 <0>         0.1213
     28 H10        -1.6802   -7.8576   -1.3813 H         1 <0>         0.1347
     29 H11        -3.7683   -7.5908   -2.7964 H         1 <0>         0.1350
     30 H12        -3.0267   -6.1123   -3.6121 H         1 <0>         0.1205
     31 H13        -1.9199   -4.3521   -1.7698 H         1 <0>         0.4287
@<TRIPOS>BOND
     1    1    6 ar
     2    1    2 ar
     3    1   19 1
     4    2    3 ar
     5    2   20 1
     6    3    4 ar
     7    3   18 1
     8    4    5 ar
     9    4   17 1
    10    5    6 ar
    11    5   21 1
    12    6    7 1
    13    7   11 1
    14    7    8 2
    15    8    9 1
    16    9   10 2
    17    9   12 1
    18   10   11 1
    19   10   22 1
    20   12   13 1
    21   12   23 1
    22   12   24 1
    23   13   14 1
    24   13   25 1
    25   13   31 1
    26   14   16 1
    27   14   15 1
    28   14   26 1
    29   15   16 1
    30   15   27 1
    31   15   28 1
    32   16   29 1
    33   16   30 1
@<TRIPOS>MOLECULE
ZINC51596247
   27    28     0     0     0
SMALL
USER_CHARGES

@<TRIPOS>ATOM
      1 C1         -0.0184    1.5028    0.0103 C.3       1 <0>        -0.1290
      2 C2          0.0021   -0.0041    0.0020 C.ar      1 <0>        -0.0155
      3 C3          0.0057   -0.6861   -1.2022 C.ar      1 <0>        -0.1276
      4 C4          0.0248   -2.0653   -1.2183 C.ar      1 <0>        -0.0519
      5 C5          0.0406   -2.7745   -0.0165 C.ar      1 <0>        -0.0859
      6 C6          0.0368   -2.0809    1.1966 C.ar      1 <0>         0.1596
      7 C7          0.0229   -0.6985    1.1976 C.ar      1 <0>        -0.1599
      8 F1          0.0515   -2.7591    2.3649 F         1 <0>        -0.1187
      9 C8          0.0606   -4.2526   -0.0268 C.2       1 <0>         0.1811
     10 N1          0.0718   -5.1010    0.9919 N.2       1 <0>        -0.5007
     11 C9          0.0895   -6.3990    0.7973 C.2       1 <0>        -0.0123
     12 C10         0.0965   -6.8942   -0.4685 C.2       1 <0>        -0.1831
     13 S1          0.0683   -5.3778   -1.4163 S.3       1 <0>         0.1000
     14 C11         0.1025   -7.3386    1.9755 C.3       1 <0>         0.0794
     15 N2          1.4849   -7.5303    2.4337 N.4       1 <0>        -0.6347
     16 H1          1.0042    1.8801    0.0026 H         1 <0>         0.0865
     17 H2         -0.5455    1.8639   -0.8728 H         1 <0>         0.0804
     18 H3         -0.5286    1.8543    0.9071 H         1 <0>         0.0781
     19 H4         -0.0068   -0.1369   -2.1320 H         1 <0>         0.1459
     20 H5          0.0273   -2.5953   -2.1593 H         1 <0>         0.1391
     21 H6          0.0244   -0.1600    2.1338 H         1 <0>         0.1491
     22 H7          0.1105   -7.9194   -0.8078 H         1 <0>         0.2115
     23 H8         -0.4931   -6.9153    2.7844 H         1 <0>         0.1475
     24 H9         -0.3184   -8.2993    1.6787 H         1 <0>         0.1486
     25 H10         2.0362   -7.9221    1.6850 H         1 <0>         0.4333
     26 H11         1.8745   -6.6411    2.7085 H         1 <0>         0.4389
     27 H12         1.4936   -8.1594    3.2225 H         1 <0>         0.4403
@<TRIPOS>BOND
     1    1    2 1
     2    1   16 1
     3    1   17 1
     4    1   18 1
     5    2    7 ar
     6    2    3 ar
     7    3    4 ar
     8    3   19 1
     9    4    5 ar
    10    4   20 1
    11    5    6 ar
    12    5    9 1
    13    6    7 ar
    14    6    8 1
    15    7   21 1
    16    9   13 1
    17    9   10 2
    18   10   11 1
    19   11   12 2
    20   11   14 1
    21   12   13 1
    22   12   22 1
    23   14   15 1
    24   14   23 1
    25   14   24 1
    26   15   25 1
    27   15   26 1
    28   15   27 1
@<TRIPOS>MOLECULE
ZINC40999578
   30    31     0     0     0
SMALL
USER_CHARGES

@<TRIPOS>ATOM
      1 C1         -0.0184    1.5028    0.0103 C.3       1 <0>        -0.1225
      2 C2          0.0021   -0.0041    0.0020 C.ar      1 <0>        -0.0780
      3 C3          0.0058   -0.6878   -1.2010 C.ar      1 <0>        -0.0849
      4 C4          0.0245   -2.0709   -1.2172 C.ar      1 <0>        -0.1154
      5 C5          0.0396   -2.7777   -0.0322 C.ar      1 <0>        -0.0697
      6 C6          0.0364   -2.0942    1.1842 C.ar      1 <0>        -0.0396
      7 C7          0.0228   -0.6986    1.1937 C.ar      1 <0>        -0.0866
      8 C8          0.0521   -2.8453    2.4579 C.2       1 <0>         0.1886
      9 N1          0.0753   -4.1548    2.6622 N.2       1 <0>        -0.5105
     10 C9          0.0869   -4.6552    3.8752 C.2       1 <0>        -0.0096
     11 C10         0.0749   -3.8239    4.9511 C.2       1 <0>        -0.1851
     12 S1          0.0525   -2.2315    4.1373 S.3       1 <0>         0.0916
     13 C11         0.1129   -6.1486    4.0755 C.3       1 <0>         0.0770
     14 N2         -1.2582   -6.6735    4.0238 N.4       1 <0>        -0.5085
     15 C12        -1.2328   -8.1292    4.2190 C.3       1 <0>        -0.0468
     16 H1          1.0042    1.8801    0.0026 H         1 <0>         0.0789
     17 H2         -0.5455    1.8639   -0.8728 H         1 <0>         0.0754
     18 H3         -0.5286    1.8543    0.9071 H         1 <0>         0.0713
     19 H4         -0.0064   -0.1393   -2.1312 H         1 <0>         0.1354
     20 H5          0.0269   -2.5987   -2.1595 H         1 <0>         0.1369
     21 H6          0.0535   -3.8575   -0.0462 H         1 <0>         0.1340
     22 H7          0.0245   -0.1637    2.1319 H         1 <0>         0.1282
     23 H8          0.0815   -4.0598    6.0050 H         1 <0>         0.2100
     24 H9          0.7087   -6.6104    3.2883 H         1 <0>         0.1448
     25 H10         0.5531   -6.3774    5.0460 H         1 <0>         0.1456
     26 H11        -1.8097   -6.2459    4.7525 H         1 <0>         0.4283
     27 H12        -0.6370   -8.5911    3.4318 H         1 <0>         0.1252
     28 H13        -0.7926   -8.3580    5.1895 H         1 <0>         0.1250
     29 H14        -2.2502   -8.5187    4.1806 H         1 <0>         0.1276
     30 H15        -1.6657   -6.4617    3.1254 H         1 <0>         0.4332
@<TRIPOS>BOND
     1    1    2 1
     2    1   16 1
     3    1   17 1
     4    1   18 1
     5    2    7 ar
     6    2    3 ar
     7    3    4 ar
     8    3   19 1
     9    4    5 ar
    10    4   20 1
    11    5    6 ar
    12    5   21 1
    13    6    7 ar
    14    6    8 1
    15    7   22 1
    16    8   12 1
    17    8    9 2
    18    9   10 1
    19   10   11 2
    20   10   13 1
    21   11   12 1
    22   11   23 1
    23   13   14 1
    24   13   24 1
    25   13   25 1
    26   14   15 1
    27   14   26 1
    28   14   30 1
    29   15   27 1
    30   15   28 1
    31   15   29 1
@<TRIPOS>MOLECULE
ZINC43393115
   33    34     0     0     0
SMALL
USER_CHARGES

@<TRIPOS>ATOM
      1 C1         -0.0184    1.5028    0.0103 C.3       1 <0>        -0.1196
      2 C2          0.0021   -0.0041    0.0020 C.ar      1 <0>        -0.0793
      3 C3          0.0058   -0.6877   -1.2008 C.ar      1 <0>        -0.0872
      4 C4          0.0245   -2.0710   -1.2171 C.ar      1 <0>        -0.0731
      5 C5          0.0401   -2.7777   -0.0322 C.ar      1 <0>        -0.0929
      6 C6          0.0369   -2.0941    1.1844 C.ar      1 <0>        -0.0348
      7 C7          0.0228   -0.6988    1.1938 C.ar      1 <0>        -0.0715
      8 C8          0.0530   -2.8452    2.4581 C.2       1 <0>         0.1893
      9 N1          0.0475   -2.3902    3.7031 N.2       1 <0>        -0.5104
     10 C9          0.0639   -3.2095    4.7281 C.2       1 <0>        -0.0097
     11 C10         0.0869   -4.5531    4.5211 C.2       1 <0>        -0.1854
     12 S1          0.0771   -4.6117    2.7336 S.3       1 <0>         0.0920
     13 C11         0.0577   -2.6621    6.1321 C.3       1 <0>         0.0770
     14 N2          1.4330   -2.3476    6.5412 N.4       1 <0>        -0.5085
     15 C12         1.4270   -1.8140    7.9098 C.3       1 <0>        -0.0468
     16 C13         0.0274   -2.8075   -2.5318 C.3       1 <0>        -0.1220
     17 H1          1.0042    1.8801    0.0026 H         1 <0>         0.0769
     18 H2         -0.5455    1.8639   -0.8728 H         1 <0>         0.0744
     19 H3         -0.5286    1.8543    0.9071 H         1 <0>         0.0702
     20 H4         -0.0064   -0.1392   -2.1310 H         1 <0>         0.1348
     21 H5          0.0543   -3.8575   -0.0462 H         1 <0>         0.1279
     22 H6          0.0241   -0.1639    2.1321 H         1 <0>         0.1337
     23 H7          0.1025   -5.3611    5.2376 H         1 <0>         0.2100
     24 H8         -0.5477   -1.7563    6.1662 H         1 <0>         0.1448
     25 H9         -0.3620   -3.4054    6.8100 H         1 <0>         0.1456
     26 H10         1.9934   -3.1861    6.5096 H         1 <0>         0.4283
     27 H11         0.8216   -0.9082    7.9440 H         1 <0>         0.1251
     28 H12         1.0073   -2.5572    8.5877 H         1 <0>         0.1250
     29 H13         2.4475   -1.5806    8.2133 H         1 <0>         0.1276
     30 H14         1.0556   -2.9711   -2.8544 H         1 <0>         0.0786
     31 H15        -0.4728   -3.7684   -2.4111 H         1 <0>         0.0717
     32 H16        -0.4986   -2.2157   -3.2809 H         1 <0>         0.0752
     33 H17         1.8216   -1.6596    5.9137 H         1 <0>         0.4332
@<TRIPOS>BOND
     1    1    2 1
     2    1   17 1
     3    1   18 1
     4    1   19 1
     5    2    7 ar
     6    2    3 ar
     7    3    4 ar
     8    3   20 1
     9    4    5 ar
    10    4   16 1
    11    5    6 ar
    12    5   21 1
    13    6    7 ar
    14    6    8 1
    15    7   22 1
    16    8   12 1
    17    8    9 2
    18    9   10 1
    19   10   11 2
    20   10   13 1
    21   11   12 1
    22   11   23 1
    23   13   14 1
    24   13   24 1
    25   13   25 1
    26   14   15 1
    27   14   26 1
    28   14   33 1
    29   15   27 1
    30   15   28 1
    31   15   29 1
    32   16   30 1
    33   16   31 1
    34   16   32 1
@<TRIPOS>MOLECULE
ZINC00023311
   30    31     0     0     0
SMALL
USER_CHARGES
N,N-dimethyl-1-(2-phenylthiazol-4-yl)methanamine
@<TRIPOS>ATOM
      1 C1         -1.4809   -4.3869   -1.9569 C.3       1 <0>        -0.0395
      2 C2         -3.2318   -5.9793   -1.4456 C.3       1 <0>        -0.0420
      3 C3         -2.8616   -4.0786    0.0081 C.3       1 <0>         0.0796
      4 C4         -2.6714   -2.5837    0.0147 C.2       1 <0>        -0.0050
      5 C5         -3.7528   -1.7598    0.0299 C.2       1 <0>        -0.1857
      6 S1         -2.9498   -0.1617    0.0384 S.3       1 <0>         0.0898
      7 C6         -1.2664   -0.7639    0.0105 C.2       1 <0>         0.1860
      8 N1         -1.4618   -2.0750    0.0054 N.2       1 <0>        -0.5088
      9 C7          0.0021   -0.0041    0.0020 C.ar      1 <0>        -0.0440
     10 C8         -0.0168    1.3913    0.0097 C.ar      1 <0>        -0.0840
     11 C9          1.1702    2.0943    0.0021 C.ar      1 <0>        -0.1146
     12 C10         2.3776    1.4189   -0.0135 C.ar      1 <0>        -0.0828
     13 C11         2.4032    0.0356   -0.0207 C.ar      1 <0>        -0.1204
     14 C12         1.2232   -0.6793   -0.0133 C.ar      1 <0>        -0.0640
     15 H1         -0.7480   -4.9364   -1.3661 H         1 <0>         0.1244
     16 H2         -1.4758   -4.7604   -2.9809 H         1 <0>         0.1191
     17 H3         -1.2275   -3.3268   -1.9555 H         1 <0>         0.1204
     18 H4         -4.2513   -6.0767   -1.0726 H         1 <0>         0.1223
     19 H5         -3.1895   -6.3190   -2.4805 H         1 <0>         0.1237
     20 H6         -2.5623   -6.5864   -0.8363 H         1 <0>         0.1245
     21 H7         -2.0667   -4.5486    0.5872 H         1 <0>         0.1437
     22 H8         -3.8271   -4.3240    0.4503 H         1 <0>         0.1424
     23 H9         -4.8050   -2.0029    0.0387 H         1 <0>         0.2096
     24 H10        -0.9587    1.9197    0.0170 H         1 <0>         0.1284
     25 H11         1.1570    3.1742    0.0077 H         1 <0>         0.1382
     26 H12         3.3041    1.9738   -0.0197 H         1 <0>         0.1358
     27 H13         3.3490   -0.4857   -0.0325 H         1 <0>         0.1364
     28 H14         1.2446   -1.7590   -0.0189 H         1 <0>         0.1340
     29 N2         -2.8355   -4.5563   -1.3904 N.4       1 <0>        -0.3960
     30 H15        -3.5002   -4.0033   -1.9442 H         1 <0>         0.4285
@<TRIPOS>BOND
     1    1   15 1
     2    1   16 1
     3    1   17 1
     4    1   29 1
     5    2   18 1
     6    2   19 1
     7    2   20 1
     8    2   29 1
     9    3    4 1
    10    3   21 1
    11    3   22 1
    12    3   29 1
    13    4    8 1
    14    4    5 2
    15    5    6 1
    16    5   23 1
    17    6    7 1
    18    7    8 2
    19    7    9 1
    20    9   14 ar
    21    9   10 ar
    22   10   11 ar
    23   10   24 1
    24   11   12 ar
    25   11   25 1
    26   12   13 ar
    27   12   26 1
    28   13   14 ar
    29   13   27 1
    30   14   28 1
    31   29   30 1
@<TRIPOS>MOLECULE
ZINC83251804
   28    29     0     0     0
SMALL
USER_CHARGES

@<TRIPOS>ATOM
      1 C1         -0.0184    1.5028    0.0103 C.3       1 <0>        -0.1171
      2 C2          0.0021   -0.0041    0.0020 C.ar      1 <0>        -0.0837
      3 C3          0.0058   -0.6878   -1.2010 C.ar      1 <0>        -0.0997
      4 C4          0.0245   -2.0709   -1.2172 C.ar      1 <0>        -0.1157
      5 C5          0.0396   -2.7777   -0.0322 C.ar      1 <0>        -0.0755
      6 C6          0.0364   -2.0942    1.1842 C.ar      1 <0>        -0.0151
      7 C7          0.0228   -0.6986    1.1937 C.ar      1 <0>        -0.0928
      8 C8          0.0521   -2.8453    2.4579 C.2       1 <0>         0.1593
      9 N1          0.0753   -4.1548    2.6622 N.2       1 <0>        -0.4935
     10 C9          0.0869   -4.6552    3.8752 C.2       1 <0>         0.0581
     11 C10         0.0749   -3.8239    4.9511 C.2       1 <0>        -0.1779
     12 S1          0.0525   -2.2315    4.1373 S.3       1 <0>         0.0158
     13 C11         0.1129   -6.1486    4.0755 C.3       1 <0>         0.1287
     14 N2         -1.2582   -6.6735    4.0238 N.3       1 <0>        -0.5338
     15 N3         -1.2717   -8.1150    4.2137 N.3       1 <0>        -0.7010
     16 H1          1.0042    1.8801    0.0026 H         1 <0>         0.0742
     17 H2         -0.5455    1.8639   -0.8728 H         1 <0>         0.0707
     18 H3         -0.5286    1.8543    0.9071 H         1 <0>         0.0688
     19 H4         -0.0064   -0.1393   -2.1312 H         1 <0>         0.1290
     20 H5          0.0269   -2.5987   -2.1595 H         1 <0>         0.1322
     21 H6          0.0535   -3.8575   -0.0462 H         1 <0>         0.1350
     22 H7          0.0245   -0.1637    2.1319 H         1 <0>         0.1268
     23 H8          0.0815   -4.0598    6.0050 H         1 <0>         0.2006
     24 H9          0.7087   -6.6104    3.2883 H         1 <0>         0.0578
     25 H10         0.5531   -6.3774    5.0460 H         1 <0>         0.0878
     26 H11        -1.7106   -6.4185    3.1587 H         1 <0>         0.3543
     27 H12        -0.8193   -8.3700    5.0787 H         1 <0>         0.3518
     28 H13        -2.2135   -8.4755    4.1781 H         1 <0>         0.3551
@<TRIPOS>BOND
     1    1    2 1
     2    1   16 1
     3    1   17 1
     4    1   18 1
     5    2    7 ar
     6    2    3 ar
     7    3    4 ar
     8    3   19 1
     9    4    5 ar
    10    4   20 1
    11    5    6 ar
    12    5   21 1
    13    6    7 ar
    14    6    8 1
    15    7   22 1
    16    8   12 1
    17    8    9 2
    18    9   10 1
    19   10   11 2
    20   10   13 1
    21   11   12 1
    22   11   23 1
    23   13   14 1
    24   13   24 1
    25   13   25 1
    26   14   15 1
    27   14   26 1
    28   15   27 1
    29   15   28 1
@<TRIPOS>MOLECULE
ZINC83251804
   29    30     0     0     0
SMALL
USER_CHARGES

@<TRIPOS>ATOM
      1 C1         -0.0184    1.5028    0.0103 C.3       1 <0>        -0.1213
      2 C2          0.0021   -0.0041    0.0020 C.ar      1 <0>        -0.0794
      3 C3          0.0058   -0.6878   -1.2010 C.ar      1 <0>        -0.0884
      4 C4          0.0245   -2.0709   -1.2172 C.ar      1 <0>        -0.1159
      5 C5          0.0396   -2.7777   -0.0322 C.ar      1 <0>        -0.0701
      6 C6          0.0364   -2.0942    1.1842 C.ar      1 <0>        -0.0339
      7 C7          0.0228   -0.6986    1.1937 C.ar      1 <0>        -0.0883
      8 C8          0.0521   -2.8453    2.4579 C.2       1 <0>         0.1837
      9 N1          0.0753   -4.1548    2.6622 N.2       1 <0>        -0.4951
     10 C9          0.0869   -4.6552    3.8752 C.2       1 <0>         0.0435
     11 C10         0.0749   -3.8239    4.9511 C.2       1 <0>        -0.2007
     12 S1          0.0525   -2.2315    4.1373 S.3       1 <0>         0.0704
     13 C11         0.1129   -6.1486    4.0755 C.3       1 <0>         0.0928
     14 N2         -1.2582   -6.6735    4.0238 N.3       1 <0>        -0.4839
     15 N3         -1.2717   -8.1150    4.2137 N.4       1 <0>        -0.4974
     16 H1          1.0042    1.8801    0.0026 H         1 <0>         0.0778
     17 H2         -0.5455    1.8639   -0.8728 H         1 <0>         0.0743
     18 H3         -0.5286    1.8543    0.9071 H         1 <0>         0.0707
     19 H4         -0.0064   -0.1393   -2.1312 H         1 <0>         0.1339
     20 H5          0.0269   -2.5987   -2.1595 H         1 <0>         0.1356
     21 H6          0.0535   -3.8575   -0.0462 H         1 <0>         0.1344
     22 H7          0.0245   -0.1637    2.1319 H         1 <0>         0.1276
     23 H8          0.0815   -4.0598    6.0050 H         1 <0>         0.2034
     24 H9          0.7087   -6.6104    3.2883 H         1 <0>         0.1242
     25 H10         0.5531   -6.3774    5.0460 H         1 <0>         0.0903
     26 H11        -1.8472   -6.2139    4.7019 H         1 <0>         0.3965
     27 H12        -2.2225   -8.4505    4.1740 H         1 <0>         0.4518
     28 H13        -0.7291   -8.5552    3.4858 H         1 <0>         0.4522
     29 H14        -0.8731   -8.3395    5.1130 H         1 <0>         0.4112
@<TRIPOS>BOND
     1    1    2 1
     2    1   16 1
     3    1   17 1
     4    1   18 1
     5    2    7 ar
     6    2    3 ar
     7    3    4 ar
     8    3   19 1
     9    4    5 ar
    10    4   20 1
    11    5    6 ar
    12    5   21 1
    13    6    7 ar
    14    6    8 1
    15    7   22 1
    16    8   12 1
    17    8    9 2
    18    9   10 1
    19   10   11 2
    20   10   13 1
    21   11   12 1
    22   11   23 1
    23   13   14 1
    24   13   24 1
    25   13   25 1
    26   14   15 1
    27   14   26 1
    28   15   27 1
    29   15   28 1
    30   15   29 1
@<TRIPOS>MOLECULE
ZINC40999775
   30    31     0     0     0
SMALL
USER_CHARGES

@<TRIPOS>ATOM
      1 C1         -0.4763    1.4576    0.1071 C.3       1 <0>        -0.1273
      2 C2         -0.2166   -0.0257    0.0482 C.ar      1 <0>        -0.0413
      3 C3         -0.0694   -0.6511   -1.1772 C.ar      1 <0>        -0.1256
      4 C4          0.1690   -2.0085   -1.2380 C.ar      1 <0>        -0.0724
      5 C5          0.2614   -2.7511   -0.0599 C.ar      1 <0>        -0.0578
      6 C6          0.1119   -2.1143    1.1726 C.ar      1 <0>        -0.0254
      7 C7         -0.1209   -0.7550    1.2197 C.ar      1 <0>        -0.1244
      8 C8          0.2103   -2.9083    2.4497 C.3       1 <0>        -0.1136
      9 C9          0.5162   -4.2065   -0.1176 C.2       1 <0>         0.1942
     10 N1          1.3769   -4.9381    0.5761 N.2       1 <0>        -0.5016
     11 C10         1.4714   -6.2342    0.3940 C.2       1 <0>        -0.0178
     12 C11         0.6761   -6.8495   -0.5211 C.2       1 <0>        -0.1831
     13 S1         -0.2592   -5.4547   -1.1362 S.3       1 <0>         0.0890
     14 C12         2.4600   -7.0392    1.1975 C.3       1 <0>         0.0798
     15 N2          3.7748   -6.9935    0.5439 N.4       1 <0>        -0.6350
     16 H1          0.4732    1.9914    0.1482 H         1 <0>         0.0809
     17 H2         -1.0280    1.7654   -0.7812 H         1 <0>         0.0750
     18 H3         -1.0620    1.6890    0.9968 H         1 <0>         0.0745
     19 H4         -0.1415   -0.0754   -2.0881 H         1 <0>         0.1365
     20 H5          0.2834   -2.4956   -2.1951 H         1 <0>         0.1294
     21 H6         -0.2323   -0.2601    2.1732 H         1 <0>         0.1358
     22 H7          1.2571   -3.0045    2.7380 H         1 <0>         0.0794
     23 H8         -0.3385   -2.3955    3.2396 H         1 <0>         0.0732
     24 H9         -0.2165   -3.8993    2.2952 H         1 <0>         0.0618
     25 H10         0.6215   -7.8922   -0.7972 H         1 <0>         0.2093
     26 H11         2.5385   -6.6212    2.2011 H         1 <0>         0.1466
     27 H12         2.1211   -8.0732    1.2601 H         1 <0>         0.1476
     28 H13         3.7022   -7.3804   -0.3851 H         1 <0>         0.4335
     29 H14         4.0886   -6.0363    0.4860 H         1 <0>         0.4385
     30 H15         4.4368   -7.5325    1.0819 H         1 <0>         0.4400
@<TRIPOS>BOND
     1    1    2 1
     2    1   16 1
     3    1   17 1
     4    1   18 1
     5    2    7 ar
     6    2    3 ar
     7    3    4 ar
     8    3   19 1
     9    4    5 ar
    10    4   20 1
    11    5    6 ar
    12    5    9 1
    13    6    7 ar
    14    6    8 1
    15    7   21 1
    16    8   22 1
    17    8   23 1
    18    8   24 1
    19    9   13 1
    20    9   10 2
    21   10   11 1
    22   11   12 2
    23   11   14 1
    24   12   13 1
    25   12   25 1
    26   14   15 1
    27   14   26 1
    28   14   27 1
    29   15   28 1
    30   15   29 1
    31   15   30 1
@<TRIPOS>MOLECULE
ZINC11850452
   27    28     0     0     0
SMALL
USER_CHARGES
(1R)-1-(2-phenylthiazol-4-yl)ethanamine
@<TRIPOS>ATOM
      1 C1          2.8034   -1.8368   -1.2168 C.3       1 <0>        -0.1747
      2 C2          1.8620   -1.6508   -0.0251 C.3       1 <0>         0.1214
      3 H1          1.0259   -2.3449   -0.1107 H         1 <0>         0.1510
      4 C3          1.3416   -0.2366   -0.0120 C.2       1 <0>        -0.0078
      5 C4          0.0021   -0.0041    0.0020 C.2       1 <0>        -0.1795
      6 S1         -0.0222    1.7842    0.0119 S.3       1 <0>         0.0932
      7 C5          1.7493    2.0260   -0.0038 C.2       1 <0>         0.1867
      8 N1          2.1804    0.7725   -0.0146 N.2       1 <0>        -0.5156
      9 C6          2.5247    3.2851   -0.0051 C.ar      1 <0>        -0.0439
     10 C7          3.9197    3.2490   -0.0132 C.ar      1 <0>        -0.0646
     11 C8          4.6372    4.4274   -0.0198 C.ar      1 <0>        -0.1204
     12 C9          3.9767    5.6430   -0.0072 C.ar      1 <0>        -0.0827
     13 C10         2.5939    5.6857    0.0062 C.ar      1 <0>        -0.1142
     14 C11         1.8646    4.5145    0.0075 C.ar      1 <0>        -0.0841
     15 H2          3.6395   -1.1428   -1.1311 H         1 <0>         0.0893
     16 H3          3.1798   -2.8597   -1.2262 H         1 <0>         0.0857
     17 H4          2.2615   -1.6405   -2.1419 H         1 <0>         0.1032
     18 H5         -0.8196   -0.7050    0.0061 H         1 <0>         0.2100
     19 H6          4.4365    2.3007   -0.0185 H         1 <0>         0.1331
     20 H7          5.7168    4.4008   -0.0306 H         1 <0>         0.1364
     21 H8          4.5430    6.5626   -0.0083 H         1 <0>         0.1360
     22 H9          2.0843    6.6378    0.0159 H         1 <0>         0.1384
     23 H10         0.7852    4.5491    0.0180 H         1 <0>         0.1286
     24 H11         2.8962   -2.8765    1.2659 H         1 <0>         0.4389
     25 H12         3.3729   -1.2843    1.3245 H         1 <0>         0.4397
     26 N2          2.5741   -1.9105    1.2386 N.4       1 <0>        -0.6427
     27 H13         1.9350   -1.7482    2.0257 H         1 <0>         0.4386
@<TRIPOS>BOND
     1    1    2 1
     2    1   15 1
     3    1   16 1
     4    1   17 1
     5    2    3 1
     6    2    4 1
     7    2   26 1
     8    4    8 1
     9    4    5 2
    10    5    6 1
    11    5   18 1
    12    6    7 1
    13    7    8 2
    14    7    9 1
    15    9   14 ar
    16    9   10 ar
    17   10   11 ar
    18   10   19 1
    19   11   12 ar
    20   11   20 1
    21   12   13 ar
    22   12   21 1
    23   13   14 ar
    24   13   22 1
    25   14   23 1
    26   24   26 1
    27   25   26 1
    28   26   27 1
@<TRIPOS>MOLECULE
ZINC11850453
   27    28     0     0     0
SMALL
USER_CHARGES
(1S)-1-(2-phenylthiazol-4-yl)ethanamine
@<TRIPOS>ATOM
      1 C1         -0.1202    1.1347   -2.4355 C.3       1 <0>        -0.1722
      2 C2         -0.7955    1.5269   -1.1198 C.3       1 <0>         0.1135
      3 H1         -0.8526    2.6132   -1.0504 H         1 <0>         0.1555
      4 C3         -2.1857    0.9469   -1.0763 C.2       1 <0>         0.0417
      5 C4         -2.5621    0.1580   -0.0349 C.2       1 <0>        -0.2651
      6 S1         -4.2463   -0.2225   -0.5013 S.3       1 <0>         0.0998
      7 C5         -4.2619    0.7006   -2.0325 C.2       1 <0>         0.2012
      8 N1         -3.0333    1.1981   -2.0461 N.2       1 <0>        -0.5036
      9 C6         -5.3517    0.8644   -3.0185 C.ar      1 <0>        -0.0484
     10 C7         -5.1529    1.6424   -4.1598 C.ar      1 <0>        -0.0597
     11 C8         -6.1720    1.7869   -5.0785 C.ar      1 <0>        -0.1206
     12 C9         -7.3927    1.1718   -4.8646 C.ar      1 <0>        -0.0803
     13 C10        -7.5979    0.4034   -3.7325 C.ar      1 <0>        -0.1160
     14 C11        -6.5851    0.2463   -2.8089 C.ar      1 <0>        -0.0824
     15 H2         -0.0630    0.0484   -2.5049 H         1 <0>         0.0799
     16 H3         -0.7018    1.5221   -3.2720 H         1 <0>         0.1147
     17 H4          0.8853    1.5542   -2.4670 H         1 <0>         0.0876
     18 H5         -2.0003   -0.1519    0.8338 H         1 <0>         0.1977
     19 H6         -4.2021    2.1271   -4.3256 H         1 <0>         0.1364
     20 H7         -6.0179    2.3849   -5.9646 H         1 <0>         0.1376
     21 H8         -8.1887    1.2917   -5.5845 H         1 <0>         0.1364
     22 H9         -8.5530   -0.0742   -3.5713 H         1 <0>         0.1386
     23 H10        -6.7464   -0.3541   -1.9258 H         1 <0>         0.1283
     24 H11         0.0021   -0.0041    0.0020 H         1 <0>         0.4365
     25 H12         0.9253    1.3792    0.0006 H         1 <0>         0.4455
     26 N2         -0.0252    1.0139    0.0269 N.4       1 <0>        -0.6440
     27 H13        -0.4761    1.3157    0.8986 H         1 <0>         0.4413
@<TRIPOS>BOND
     1    1    2 1
     2    1   15 1
     3    1   16 1
     4    1   17 1
     5    2    3 1
     6    2    4 1
     7    2   26 1
     8    4    8 1
     9    4    5 2
    10    5    6 1
    11    5   18 1
    12    6    7 1
    13    7    8 2
    14    7    9 1
    15    9   14 ar
    16    9   10 ar
    17   10   11 ar
    18   10   19 1
    19   11   12 ar
    20   11   20 1
    21   12   13 ar
    22   12   21 1
    23   13   14 ar
    24   13   22 1
    25   14   23 1
    26   24   26 1
    27   25   26 1
    28   26   27 1
@<TRIPOS>MOLECULE
ZINC40999804
   33    34     0     0     0
SMALL
USER_CHARGES

@<TRIPOS>ATOM
      1 C1         -0.4865    1.4580   -0.0066 C.3       1 <0>        -0.1268
      2 C2         -0.2215   -0.0255   -0.0061 C.ar      1 <0>        -0.0367
      3 C3         -0.0382   -0.6928   -1.2041 C.ar      1 <0>        -0.1307
      4 C4          0.2053   -2.0509   -1.2105 C.ar      1 <0>        -0.0202
      5 C5          0.2664   -2.7513   -0.0051 C.ar      1 <0>        -0.0616
      6 C6          0.0806   -2.0723    1.1998 C.ar      1 <0>        -0.0362
      7 C7         -0.1569   -0.7132    1.1927 C.ar      1 <0>        -0.1285
      8 C8          0.1444   -2.8209    2.5061 C.3       1 <0>        -0.1280
      9 C9          0.5264   -4.2070   -0.0046 C.2       1 <0>         0.2003
     10 N1         -0.0440   -5.1638   -0.7232 N.2       1 <0>        -0.5036
     11 C10         0.3143   -6.4194   -0.5928 C.2       1 <0>        -0.0183
     12 C11         1.2884   -6.7574    0.2934 C.2       1 <0>        -0.1860
     13 S1          1.7004   -5.1497    0.9598 S.3       1 <0>         0.0900
     14 C12        -0.3531   -7.4849   -1.4236 C.3       1 <0>         0.0796
     15 N2         -1.5922   -7.9165   -0.7629 N.4       1 <0>        -0.6351
     16 C13         0.4042   -2.7762   -2.5164 C.3       1 <0>        -0.1299
     17 H1          0.4601    1.9962    0.0424 H         1 <0>         0.0815
     18 H2         -1.0137    1.7326   -0.9202 H         1 <0>         0.0744
     19 H3         -1.0976    1.7182    0.8577 H         1 <0>         0.0744
     20 H4         -0.0861   -0.1496   -2.1363 H         1 <0>         0.1352
     21 H5         -0.2965   -0.1857    2.1247 H         1 <0>         0.1360
     22 H6          1.1700   -2.8210    2.8752 H         1 <0>         0.0820
     23 H7         -0.5041   -2.3352    3.2353 H         1 <0>         0.0829
     24 H8         -0.1866   -3.8481    2.3528 H         1 <0>         0.0609
     25 H9          1.7017   -7.7274    0.5272 H         1 <0>         0.2090
     26 H10        -0.5879   -7.0832   -2.4093 H         1 <0>         0.1465
     27 H11         0.3182   -8.3371   -1.5290 H         1 <0>         0.1476
     28 H12        -1.3749   -8.2883    0.1495 H         1 <0>         0.4335
     29 H13        -2.2137   -7.1276   -0.6653 H         1 <0>         0.4385
     30 H14         1.4704   -2.8570   -2.7283 H         1 <0>         0.0725
     31 H15        -0.0291   -3.7740   -2.4475 H         1 <0>         0.0825
     32 H16        -0.0846   -2.2223   -3.3178 H         1 <0>         0.0749
     33 H17        -2.0390   -8.6299   -1.3192 H         1 <0>         0.4400
@<TRIPOS>BOND
     1    1    2 1
     2    1   17 1
     3    1   18 1
     4    1   19 1
     5    2    7 ar
     6    2    3 ar
     7    3    4 ar
     8    3   20 1
     9    4    5 ar
    10    4   16 1
    11    5    6 ar
    12    5    9 1
    13    6    7 ar
    14    6    8 1
    15    7   21 1
    16    8   22 1
    17    8   23 1
    18    8   24 1
    19    9   13 1
    20    9   10 2
    21   10   11 1
    22   11   12 2
    23   11   14 1
    24   12   13 1
    25   12   25 1
    26   14   15 1
    27   14   26 1
    28   14   27 1
    29   15   28 1
    30   15   29 1
    31   15   33 1
    32   16   30 1
    33   16   31 1
    34   16   32 1
@<TRIPOS>MOLECULE
ZINC32219387
   21    22     0     0     0
SMALL
USER_CHARGES
2-(4-chlorophenyl)-4-methyl-thiazole
@<TRIPOS>ATOM
      1 C1         -2.4770    1.3886    0.0190 C.3       1 <0>        -0.0861
      2 C2         -1.0704    1.9296    0.0166 C.2       1 <0>         0.0578
      3 C3         -0.0126    1.0758    0.0080 C.2       1 <0>        -0.1999
      4 S1          1.3481    2.2365    0.0012 S.3       1 <0>         0.0131
      5 C4          0.3621    3.7279    0.0180 C.2       1 <0>         0.1524
      6 N1         -0.8647    3.2257    0.0268 N.2       1 <0>        -0.4930
      7 C5          0.7977    5.1409    0.0215 C.ar      1 <0>        -0.0128
      8 C6         -0.1493    6.1659    0.0301 C.ar      1 <0>        -0.0577
      9 C7          0.2631    7.4822    0.0382 C.ar      1 <0>        -0.1099
     10 C8          1.6137    7.7874    0.0272 C.ar      1 <0>        -0.0183
     11 C9          2.5580    6.7747    0.0133 C.ar      1 <0>        -0.1076
     12 C10         2.1575    5.4547    0.0104 C.ar      1 <0>        -0.0792
     13 Cl1         2.1252    9.4464    0.0301 Cl        1 <0>        -0.0589
     14 H1         -2.4469    0.2891    0.0093 H         1 <0>         0.0757
     15 H2         -3.0099    1.7487   -0.8734 H         1 <0>         0.0763
     16 H3         -3.0008    1.7332    0.9228 H         1 <0>         0.0763
     17 H4          0.0021   -0.0041    0.0020 H         1 <0>         0.2009
     18 H5         -1.2030    5.9290    0.0346 H         1 <0>         0.1462
     19 H6         -0.4688    8.2762    0.0490 H         1 <0>         0.1436
     20 H7          3.6100    7.0187    0.0043 H         1 <0>         0.1438
     21 H8          2.8949    4.6656   -0.0008 H         1 <0>         0.1374
@<TRIPOS>BOND
     1    1    2 1
     2    1   14 1
     3    1   15 1
     4    1   16 1
     5    2    6 1
     6    2    3 2
     7    3    4 1
     8    3   17 1
     9    4    5 1
    10    5    6 2
    11    5    7 1
    12    7   12 ar
    13    7    8 ar
    14    8    9 ar
    15    8   18 1
    16    9   10 ar
    17    9   19 1
    18   10   11 ar
    19   10   13 1
    20   11   12 ar
    21   11   20 1
    22   12   21 1
@<TRIPOS>MOLECULE
ZINC11755530
   27    28     0     0     0
SMALL
USER_CHARGES
2-[2-(3,4-dichlorophenyl)thiazol-4-yl]ethanamine
@<TRIPOS>ATOM
      1 C1         -0.0168    1.3912    0.0097 C.ar      1 <0>        -0.0717
      2 C2          1.1698    2.0950    0.0021 C.ar      1 <0>        -0.0917
      3 C3          2.3782    1.4201   -0.0130 C.ar      1 <0>        -0.0097
      4 C4          2.4040    0.0343   -0.0207 C.ar      1 <0>        -0.0357
      5 C5          1.2230   -0.6801   -0.0133 C.ar      1 <0>        -0.0501
      6 C6          0.0021   -0.0041    0.0020 C.ar      1 <0>        -0.0143
      7 C7         -1.2666   -0.7634    0.0096 C.2       1 <0>         0.1628
      8 N1         -1.4624   -2.0745    0.0043 N.2       1 <0>        -0.5049
      9 C8         -2.6724   -2.5828    0.0134 C.2       1 <0>         0.0400
     10 C9         -3.7533   -1.7585    0.0285 C.2       1 <0>        -0.1899
     11 S1         -2.9497   -0.1607    0.0362 S.3       1 <0>         0.0765
     12 C10        -2.8632   -4.0776    0.0066 C.3       1 <0>        -0.0706
     13 C11        -2.1183   -4.6814   -1.1857 C.3       1 <0>         0.0010
     14 Cl1         3.9239   -0.8042   -0.0392 Cl        1 <0>        -0.0297
     15 Cl2         3.8672    2.3127   -0.0230 Cl        1 <0>        -0.0251
     16 H1         -0.9589    1.9193    0.0170 H         1 <0>         0.1451
     17 H2          1.1558    3.1749    0.0081 H         1 <0>         0.1578
     18 H3          1.2436   -1.7599   -0.0189 H         1 <0>         0.1526
     19 H4         -4.8056   -2.0012    0.0374 H         1 <0>         0.2054
     20 H5         -2.4696   -4.4984    0.9318 H         1 <0>         0.1028
     21 H6         -3.9255   -4.3079   -0.0742 H         1 <0>         0.1027
     22 H7         -2.5120   -4.2607   -2.1110 H         1 <0>         0.1313
     23 H8         -1.0560   -4.4511   -1.1049 H         1 <0>         0.1429
     24 H9         -1.8215   -6.5612   -1.9710 H         1 <0>         0.4421
     25 H10        -2.0062   -6.5451   -0.3183 H         1 <0>         0.4381
     26 N2         -2.3294   -6.1397   -1.1951 N.4       1 <0>        -0.6465
     27 H11        -3.3314   -6.3350   -1.3052 H         1 <0>         0.4388
@<TRIPOS>BOND
     1    1    6 ar
     2    1    2 ar
     3    1   16 1
     4    2    3 ar
     5    2   17 1
     6    3    4 ar
     7    3   15 1
     8    4    5 ar
     9    4   14 1
    10    5    6 ar
    11    5   18 1
    12    6    7 1
    13    7   11 1
    14    7    8 2
    15    8    9 1
    16    9   10 2
    17    9   12 1
    18   10   11 1
    19   10   19 1
    20   12   13 1
    21   12   20 1
    22   12   21 1
    23   13   22 1
    24   13   23 1
    25   13   26 1
    26   24   26 1
    27   25   26 1
    28   26   27 1
@<TRIPOS>MOLECULE
ZINC40999545
   24    25     0     0     0
SMALL
USER_CHARGES

@<TRIPOS>ATOM
      1 C1         -0.0167    1.3789    0.0096 C.ar      1 <0>        -0.0264
      2 C2          1.1674    2.0939    0.0022 C.ar      1 <0>        -0.1565
      3 C3          2.3796    1.4300   -0.0130 C.ar      1 <0>         0.1575
      4 C4          2.4068    0.0328   -0.0208 C.ar      1 <0>        -0.1097
      5 C5          1.2063   -0.6824   -0.0132 C.ar      1 <0>         0.1802
      6 C6          0.0021   -0.0041    0.0020 C.ar      1 <0>        -0.1628
      7 F1          1.2226   -2.0332   -0.0210 F         1 <0>        -0.1099
      8 C7          3.6987   -0.6847   -0.0375 C.2       1 <0>         0.1616
      9 N1          3.9368   -1.9890   -0.0523 N.2       1 <0>        -0.4931
     10 C8          5.1632   -2.4574   -0.0660 C.2       1 <0>        -0.0158
     11 C9          6.2164   -1.5987   -0.0652 C.2       1 <0>        -0.1885
     12 S1          5.3616   -0.0278   -0.0511 S.3       1 <0>         0.1364
     13 C10         5.4026   -3.9452   -0.0822 C.3       1 <0>         0.0801
     14 N2          5.3710   -4.4612    1.2929 N.4       1 <0>        -0.6349
     15 F2          3.5350    2.1300   -0.0207 F         1 <0>        -0.1157
     16 H1         -0.9607    1.9033    0.0260 H         1 <0>         0.1590
     17 H2          1.1446    3.1736    0.0078 H         1 <0>         0.1594
     18 H3         -0.9266   -0.5554    0.0083 H         1 <0>         0.1577
     19 H4          7.2760   -1.8071   -0.0745 H         1 <0>         0.2121
     20 H5          4.6251   -4.4320   -0.6709 H         1 <0>         0.1477
     21 H6          6.3768   -4.1517   -0.5254 H         1 <0>         0.1489
     22 H7          4.4692   -4.2701    1.7032 H         1 <0>         0.4387
     23 H8          5.5313   -5.4574    1.2821 H         1 <0>         0.4405
     24 H9          6.0907   -4.0106    1.8378 H         1 <0>         0.4335
@<TRIPOS>BOND
     1    1    6 ar
     2    1    2 ar
     3    1   16 1
     4    2    3 ar
     5    2   17 1
     6    3    4 ar
     7    3   15 1
     8    4    5 ar
     9    4    8 1
    10    5    6 ar
    11    5    7 1
    12    6   18 1
    13    8   12 1
    14    8    9 2
    15    9   10 1
    16   10   11 2
    17   10   13 1
    18   11   12 1
    19   11   19 1
    20   13   14 1
    21   13   20 1
    22   13   21 1
    23   14   22 1
    24   14   23 1
    25   14   24 1
@<TRIPOS>MOLECULE
ZINC41009983
   27    28     0     0     0
SMALL
USER_CHARGES

@<TRIPOS>ATOM
      1 C1         -0.0178    1.4648    0.0101 C.3       1 <0>        -0.0467
      2 N1          0.0021   -0.0041    0.0020 N.4       1 <0>        -0.5089
      3 C2         -1.3761   -0.5125    0.0124 C.3       1 <0>         0.0766
      4 C3         -1.3556   -2.0194    0.0042 C.2       1 <0>        -0.0181
      5 C4         -1.4428   -2.7078    1.1730 C.2       1 <0>        -0.1996
      6 S1         -1.3712   -4.3904    0.5711 S.3       1 <0>         0.1444
      7 C5         -1.2332   -3.9943   -1.1670 C.2       1 <0>         0.1497
      8 N2         -1.2590   -2.6692   -1.1322 N.2       1 <0>        -0.4789
      9 C6         -1.1248   -4.9003   -2.3300 C.ar      1 <0>        -0.0176
     10 C7         -1.0193   -4.3762   -3.6201 C.ar      1 <0>         0.0164
     11 C8         -0.9179   -5.2286   -4.7019 C.ar      1 <0>        -0.1038
     12 C9         -0.9207   -6.5986   -4.5099 C.ar      1 <0>        -0.0624
     13 C10        -1.0254   -7.1247   -3.2348 C.ar      1 <0>        -0.0979
     14 C11        -1.1217   -6.2843   -2.1433 C.ar      1 <0>        -0.0110
     15 Cl1        -1.2453   -6.9467   -0.5434 Cl        1 <0>        -0.0169
     16 Cl2        -1.0160   -2.6574   -3.8635 Cl        1 <0>        -0.0258
     17 H1          1.0047    1.8421    0.0024 H         1 <0>         0.1274
     18 H2         -0.5450    1.8259   -0.8730 H         1 <0>         0.1245
     19 H3         -0.5280    1.8163    0.9069 H         1 <0>         0.1252
     20 H4          0.4744   -0.3295   -0.8281 H         1 <0>         0.4327
     21 H5         -1.8863   -0.1610    0.9092 H         1 <0>         0.1451
     22 H6         -1.9033   -0.1515   -0.8706 H         1 <0>         0.1433
     23 H7         -1.5310   -2.3404    2.1847 H         1 <0>         0.2068
     24 H8         -0.8365   -4.8247   -5.7003 H         1 <0>         0.1544
     25 H9         -0.8411   -7.2605   -5.3596 H         1 <0>         0.1570
     26 H10        -1.0274   -8.1953   -3.0923 H         1 <0>         0.1560
     27 H11         0.4901   -0.3383    0.8195 H         1 <0>         0.4283
@<TRIPOS>BOND
     1    1    2 1
     2    1   17 1
     3    1   18 1
     4    1   19 1
     5    2    3 1
     6    2   20 1
     7    2   27 1
     8    3    4 1
     9    3   21 1
    10    3   22 1
    11    4    8 1
    12    4    5 2
    13    5    6 1
    14    5   23 1
    15    6    7 1
    16    7    8 2
    17    7    9 1
    18    9   14 ar
    19    9   10 ar
    20   10   11 ar
    21   10   16 1
    22   11   12 ar
    23   11   24 1
    24   12   13 ar
    25   12   25 1
    26   13   14 ar
    27   13   26 1
    28   14   15 1
@<TRIPOS>MOLECULE
ZINC62786666
   24    25     0     0     0
SMALL
USER_CHARGES

@<TRIPOS>ATOM
      1 C1         -0.0167    1.3805    0.0096 C.ar      1 <0>        -0.1151
      2 C2          1.1662    2.0903    0.0021 C.ar      1 <0>        -0.0444
      3 C3          2.3847    1.4108   -0.0131 C.ar      1 <0>        -0.0717
      4 C4          2.3986    0.0130   -0.0207 C.ar      1 <0>         0.1679
      5 C5          1.2068   -0.6859   -0.0131 C.ar      1 <0>        -0.1489
      6 C6          0.0021   -0.0041    0.0020 C.ar      1 <0>         0.0201
      7 Cl1        -1.4916   -0.8887    0.0115 Cl        1 <0>        -0.0273
      8 F1          3.5742   -0.6527   -0.0359 F         1 <0>        -0.1110
      9 C7          3.6555    2.1658   -0.0217 C.2       1 <0>         0.1712
     10 N1          4.9021    1.7148   -0.0415 N.2       1 <0>        -0.4950
     11 C8          5.9245    2.5383   -0.0470 C.2       1 <0>        -0.0138
     12 C9          5.7131    3.8807   -0.0323 C.2       1 <0>        -0.1780
     13 S1          3.9255    3.9333   -0.0160 S.3       1 <0>         0.1107
     14 C10         7.3303    1.9958   -0.0692 C.3       1 <0>         0.0793
     15 N2          7.7605    1.6944    1.3027 N.4       1 <0>        -0.6349
     16 H1         -0.9600    1.9062    0.0260 H         1 <0>         0.1574
     17 H2          1.1491    3.1701    0.0077 H         1 <0>         0.1492
     18 H3          1.2150   -1.7659   -0.0193 H         1 <0>         0.1605
     19 H4          6.4268    4.6913   -0.0340 H         1 <0>         0.2130
     20 H5          7.3589    1.0850   -0.6673 H         1 <0>         0.1481
     21 H6          7.9992    2.7379   -0.5050 H         1 <0>         0.1492
     22 H7          7.7340    2.5375    1.8564 H         1 <0>         0.4335
     23 H8          7.1413    1.0075    1.7061 H         1 <0>         0.4389
     24 H9          8.7018    1.3312    1.2879 H         1 <0>         0.4409
@<TRIPOS>BOND
     1    1    6 ar
     2    1    2 ar
     3    1   16 1
     4    2    3 ar
     5    2   17 1
     6    3    4 ar
     7    3    9 1
     8    4    5 ar
     9    4    8 1
    10    5    6 ar
    11    5   18 1
    12    6    7 1
    13    9   13 1
    14    9   10 2
    15   10   11 1
    16   11   12 2
    17   11   14 1
    18   12   13 1
    19   12   19 1
    20   14   15 1
    21   14   20 1
    22   14   21 1
    23   15   22 1
    24   15   23 1
    25   15   24 1
@<TRIPOS>MOLECULE
ZINC70840630
   27    28     0     0     0
SMALL
USER_CHARGES

@<TRIPOS>ATOM
      1 C1         -0.0187    1.5258    0.0104 C.3       1 <0>        -0.1750
      2 C2          0.0021   -0.0041    0.0020 C.3       1 <0>         0.1101
      3 H1          0.5293   -0.3651    0.8851 H         1 <0>         0.1581
      4 C3         -1.4117   -0.5257    0.0127 C.2       1 <0>         0.0369
      5 C4         -1.8245   -1.3932   -0.9488 C.2       1 <0>        -0.2667
      6 S1         -3.5209   -1.6582   -0.4481 S.3       1 <0>         0.1449
      7 C5         -3.4951   -0.5874    0.9836 C.2       1 <0>         0.1770
      8 N1         -2.2449   -0.1472    0.9537 N.2       1 <0>        -0.4915
      9 C6         -4.5755   -0.2795    1.9445 C.ar      1 <0>        -0.0606
     10 C7         -4.3428    0.6002    3.0027 C.ar      1 <0>        -0.0321
     11 C8         -5.3545    0.8839    3.8964 C.ar      1 <0>        -0.1132
     12 C9         -6.5997    0.2991    3.7470 C.ar      1 <0>        -0.0483
     13 C10        -6.8399   -0.5743    2.7010 C.ar      1 <0>        -0.0744
     14 C11        -5.8358   -0.8633    1.7940 C.ar      1 <0>         0.1371
     15 F1         -6.0717   -1.7116    0.7694 F         1 <0>        -0.1124
     16 Cl1        -8.4053   -1.3033    2.5225 Cl        1 <0>        -0.0226
     17 N2          0.6897   -0.4778   -1.2066 N.4       1 <0>        -0.6350
     18 H2          1.0039    1.9031    0.0027 H         1 <0>         0.0885
     19 H3         -0.5459    1.8868   -0.8726 H         1 <0>         0.0807
     20 H4         -0.5289    1.8773    0.9072 H         1 <0>         0.1150
     21 H5         -1.2793   -1.8074   -1.7840 H         1 <0>         0.1992
     22 H6         -3.3718    1.0579    3.1220 H         1 <0>         0.1539
     23 H7         -5.1741    1.5644    4.7154 H         1 <0>         0.1560
     24 H8         -7.3876    0.5251    4.4503 H         1 <0>         0.1578
     25 H9          1.6363   -0.1286   -1.2138 H         1 <0>         0.4442
     26 H10         0.7033   -1.4867   -1.2121 H         1 <0>         0.4370
     27 H11         0.2017   -0.1436   -2.0240 H         1 <0>         0.4352
@<TRIPOS>BOND
     1    1    2 1
     2    1   18 1
     3    1   19 1
     4    1   20 1
     5    2    3 1
     6    2    4 1
     7    2   17 1
     8    4    8 1
     9    4    5 2
    10    5    6 1
    11    5   21 1
    12    6    7 1
    13    7    8 2
    14    7    9 1
    15    9   14 ar
    16    9   10 ar
    17   10   11 ar
    18   10   22 1
    19   11   12 ar
    20   11   23 1
    21   12   13 ar
    22   12   24 1
    23   13   14 ar
    24   13   16 1
    25   14   15 1
    26   17   25 1
    27   17   26 1
    28   17   27 1
@<TRIPOS>MOLECULE
ZINC62606524
   30    31     0     0     0
SMALL
USER_CHARGES

@<TRIPOS>ATOM
      1 C1         -0.0187    1.5258    0.0104 C.3       1 <0>        -0.1901
      2 C2          0.0021   -0.0041    0.0020 C.3       1 <0>        -0.0095
      3 N1          0.7126   -0.4907    1.1921 N.4       1 <0>        -0.5091
      4 C3          0.7325   -1.9595    1.1840 C.3       1 <0>         0.0786
      5 C4          1.4614   -2.4588    2.4049 C.2       1 <0>        -0.0131
      6 C5          0.7648   -2.8028    3.5203 C.2       1 <0>        -0.1875
      7 S1          2.0990   -3.3023    4.6016 S.3       1 <0>         0.1354
      8 C6          3.4353   -2.9991    3.4530 C.2       1 <0>         0.1635
      9 N2          2.7694   -2.5672    2.3911 N.2       1 <0>        -0.4984
     10 C7          4.8904   -3.1846    3.6364 C.ar      1 <0>        -0.0570
     11 C8          5.7725   -2.8775    2.5993 C.ar      1 <0>        -0.0358
     12 C9          7.1292   -3.0525    2.7759 C.ar      1 <0>        -0.1133
     13 C10         7.6187   -3.5317    3.9783 C.ar      1 <0>        -0.0504
     14 C11         6.7520   -3.8390    5.0123 C.ar      1 <0>        -0.0735
     15 C12         5.3893   -3.6627    4.8507 C.ar      1 <0>         0.1358
     16 F1          4.5432   -3.9573    5.8620 F         1 <0>        -0.1119
     17 Cl1         7.3759   -4.4401    6.5167 Cl        1 <0>        -0.0225
     18 H1          1.0039    1.9031    0.0027 H         1 <0>         0.0807
     19 H2         -0.5459    1.8868   -0.8726 H         1 <0>         0.1083
     20 H3         -0.5289    1.8773    0.9072 H         1 <0>         0.0805
     21 H4         -1.0205   -0.3814    0.0098 H         1 <0>         0.1326
     22 H5          0.5123   -0.3556   -0.8948 H         1 <0>         0.1327
     23 H6          1.6592   -0.1414    1.1850 H         1 <0>         0.4307
     24 H7         -0.2901   -2.3368    1.1918 H         1 <0>         0.1463
     25 H8          1.2427   -2.3111    0.2873 H         1 <0>         0.1453
     26 H9         -0.2993   -2.7804    3.7031 H         1 <0>         0.2115
     27 H10         5.3932   -2.5037    1.6597 H         1 <0>         0.1517
     28 H11         7.8116   -2.8152    1.9732 H         1 <0>         0.1550
     29 H12         8.6821   -3.6669    4.1102 H         1 <0>         0.1572
     30 H13         0.2403   -0.1653    2.0223 H         1 <0>         0.4262
@<TRIPOS>BOND
     1    1    2 1
     2    1   18 1
     3    1   19 1
     4    1   20 1
     5    2    3 1
     6    2   21 1
     7    2   22 1
     8    3    4 1
     9    3   23 1
    10    3   30 1
    11    4    5 1
    12    4   24 1
    13    4   25 1
    14    5    9 1
    15    5    6 2
    16    6    7 1
    17    6   26 1
    18    7    8 1
    19    8    9 2
    20    8   10 1
    21   10   15 ar
    22   10   11 ar
    23   11   12 ar
    24   11   27 1
    25   12   13 ar
    26   12   28 1
    27   13   14 ar
    28   13   29 1
    29   14   15 ar
    30   14   17 1
    31   15   16 1
@<TRIPOS>MOLECULE
ZINC84647979
   31    32     0     0     0
SMALL
USER_CHARGES

@<TRIPOS>ATOM
      1 C1         -0.0178    1.4648    0.0101 C.3       1 <0>        -0.0468
      2 N1          0.0021   -0.0041    0.0020 N.4       1 <0>        -0.5085
      3 C2          0.6897   -0.4778   -1.2066 C.3       1 <0>         0.0770
      4 C3          0.7101   -1.9847   -1.2149 C.2       1 <0>        -0.0091
      5 C4         -0.2476   -2.6746   -1.8884 C.2       1 <0>        -0.1840
      6 S1          0.2642   -4.3564   -1.5598 S.3       1 <0>         0.0943
      7 C5          1.6945   -3.9581   -0.5636 C.2       1 <0>         0.1914
      8 N2          1.6562   -2.6328   -0.5760 N.2       1 <0>        -0.5115
      9 C6          2.6619   -4.8626    0.0930 C.ar      1 <0>        -0.0723
     10 C7          3.7174   -4.3355    0.8393 C.ar      1 <0>        -0.0146
     11 C8          4.6175   -5.1818    1.4507 C.ar      1 <0>        -0.2017
     12 C9          4.4760   -6.5574    1.3249 C.ar      1 <0>         0.1772
     13 C10         3.4269   -7.0865    0.5831 C.ar      1 <0>        -0.0725
     14 C11         2.5189   -6.2459   -0.0269 C.ar      1 <0>        -0.0364
     15 Cl1         3.2552   -8.8070    0.4288 Cl        1 <0>        -0.0303
     16 O1          5.3658   -7.3881    1.9284 O.3       1 <0>        -0.2943
     17 C12         6.4202   -6.7775    2.6750 C.3       1 <0>         0.0197
     18 H1          1.0047    1.8421    0.0024 H         1 <0>         0.1251
     19 H2         -0.5450    1.8259   -0.8730 H         1 <0>         0.1251
     20 H3         -0.5280    1.8163    0.9069 H         1 <0>         0.1276
     21 H4          0.4901   -0.3383    0.8195 H         1 <0>         0.4330
     22 H5          0.1625   -0.1167   -2.0897 H         1 <0>         0.1457
     23 H6          1.7123   -0.1005   -1.2143 H         1 <0>         0.1449
     24 H7         -1.0859   -2.3086   -2.4627 H         1 <0>         0.2102
     25 H8          3.8289   -3.2658    0.9372 H         1 <0>         0.1445
     26 H9          5.4341   -4.7744    2.0281 H         1 <0>         0.1514
     27 H10         1.7011   -6.6574   -0.5998 H         1 <0>         0.1456
     28 H11         7.0125   -6.1433    2.0154 H         1 <0>         0.0643
     29 H12         5.9952   -6.1722    3.4757 H         1 <0>         0.0638
     30 H13         7.0573   -7.5512    3.1036 H         1 <0>         0.1127
     31 H14        -0.9445   -0.3533    0.0092 H         1 <0>         0.4286
@<TRIPOS>BOND
     1    1    2 1
     2    1   18 1
     3    1   19 1
     4    1   20 1
     5    2    3 1
     6    2   21 1
     7    2   31 1
     8    3    4 1
     9    3   22 1
    10    3   23 1
    11    4    8 1
    12    4    5 2
    13    5    6 1
    14    5   24 1
    15    6    7 1
    16    7    8 2
    17    7    9 1
    18    9   14 ar
    19    9   10 ar
    20   10   11 ar
    21   10   25 1
    22   11   12 ar
    23   11   26 1
    24   12   13 ar
    25   12   16 1
    26   13   14 ar
    27   13   15 1
    28   14   27 1
    29   16   17 1
    30   17   28 1
    31   17   29 1
    32   17   30 1
@<TRIPOS>MOLECULE
ZINC70840632
   27    28     0     0     0
SMALL
USER_CHARGES

@<TRIPOS>ATOM
      1 C1         -0.0187    1.5258    0.0104 C.3       1 <0>        -0.1774
      2 C2          0.0021   -0.0041    0.0020 C.3       1 <0>         0.1178
      3 H1          0.5293   -0.3651    0.8851 H         1 <0>         0.1538
      4 C3          0.7074   -0.4901   -1.2379 C.2       1 <0>        -0.0110
      5 C4          1.7600   -1.3436   -1.1319 C.2       1 <0>        -0.1818
      6 S1          2.1781   -1.5677   -2.8563 S.3       1 <0>         0.1374
      7 C5          0.9087   -0.5029   -3.5283 C.2       1 <0>         0.1632
      8 N1          0.3030   -0.0941   -2.4221 N.2       1 <0>        -0.5049
      9 C6          0.6117   -0.1713   -4.9380 C.ar      1 <0>        -0.0567
     10 C7         -0.4349    0.6986   -5.2480 C.ar      1 <0>        -0.0369
     11 C8         -0.7076    1.0045   -6.5650 C.ar      1 <0>        -0.1134
     12 C9          0.0531    0.4516   -7.5802 C.ar      1 <0>        -0.0504
     13 C10         1.0927   -0.4118   -7.2827 C.ar      1 <0>        -0.0732
     14 C11         1.3809   -0.7227   -5.9657 C.ar      1 <0>         0.1360
     15 F1          2.3993   -1.5613   -5.6746 F         1 <0>        -0.1116
     16 Cl1         2.0408   -1.1007   -8.5634 Cl        1 <0>        -0.0219
     17 N2         -1.3761   -0.5125    0.0124 N.4       1 <0>        -0.6341
     18 H2          1.0039    1.9031    0.0027 H         1 <0>         0.1039
     19 H3         -0.5459    1.8868   -0.8726 H         1 <0>         0.0898
     20 H4         -0.5289    1.8773    0.9072 H         1 <0>         0.0867
     21 H5          2.2173   -1.7684   -0.2505 H         1 <0>         0.2117
     22 H6         -1.0305    1.1313   -4.4577 H         1 <0>         0.1507
     23 H7         -1.5177    1.6774   -6.8047 H         1 <0>         0.1548
     24 H8         -0.1658    0.6948   -8.6094 H         1 <0>         0.1573
     25 H9         -1.8641   -0.1783   -0.8050 H         1 <0>         0.4377
     26 H10        -1.3624   -1.5214    0.0069 H         1 <0>         0.4349
     27 H11        -1.8484   -0.1871    0.8426 H         1 <0>         0.4377
@<TRIPOS>BOND
     1    1    2 1
     2    1   18 1
     3    1   19 1
     4    1   20 1
     5    2    3 1
     6    2    4 1
     7    2   17 1
     8    4    8 1
     9    4    5 2
    10    5    6 1
    11    5   21 1
    12    6    7 1
    13    7    8 2
    14    7    9 1
    15    9   14 ar
    16    9   10 ar
    17   10   11 ar
    18   10   22 1
    19   11   12 ar
    20   11   23 1
    21   12   13 ar
    22   12   24 1
    23   13   14 ar
    24   13   16 1
    25   14   15 1
    26   17   25 1
    27   17   26 1
    28   17   27 1
@<TRIPOS>MOLECULE
ZINC40420123
   27    28     0     0     0
SMALL
USER_CHARGES

@<TRIPOS>ATOM
      1 C1         -0.0178    1.4648    0.0101 C.3       1 <0>        -0.0468
      2 N1          0.0021   -0.0041    0.0020 N.4       1 <0>        -0.5086
      3 C2         -1.3761   -0.5125    0.0124 C.3       1 <0>         0.0770
      4 C3         -1.3556   -2.0194    0.0042 C.2       1 <0>        -0.0118
      5 C4         -1.4429   -2.7080    1.1732 C.2       1 <0>        -0.1793
      6 S1         -1.3712   -4.3905    0.5711 S.3       1 <0>         0.1037
      7 C5         -1.2333   -3.9940   -1.1669 C.2       1 <0>         0.1778
      8 N2         -1.2590   -2.6691   -1.1318 N.2       1 <0>        -0.5027
      9 C6         -1.1248   -4.9001   -2.3305 C.ar      1 <0>        -0.0110
     10 C7         -1.0194   -4.3754   -3.6196 C.ar      1 <0>        -0.0754
     11 C8         -0.9186   -5.2249   -4.7019 C.ar      1 <0>        -0.0878
     12 C9         -0.9217   -6.5952   -4.5127 C.ar      1 <0>        -0.1199
     13 C10        -1.0260   -7.1237   -3.2362 C.ar      1 <0>         0.1102
     14 C11        -1.1218   -6.2824   -2.1437 C.ar      1 <0>        -0.1248
     15 F1         -1.0288   -8.4629   -3.0587 F         1 <0>        -0.1259
     16 H1          1.0047    1.8421    0.0024 H         1 <0>         0.1279
     17 H2         -0.5450    1.8259   -0.8730 H         1 <0>         0.1254
     18 H3         -0.5280    1.8163    0.9069 H         1 <0>         0.1252
     19 H4          0.4744   -0.3295   -0.8281 H         1 <0>         0.4333
     20 H5         -1.8863   -0.1610    0.9092 H         1 <0>         0.1463
     21 H6         -1.9033   -0.1515   -0.8706 H         1 <0>         0.1456
     22 H7         -1.5307   -2.3408    2.1851 H         1 <0>         0.2118
     23 H8         -1.0172   -3.3058   -3.7696 H         1 <0>         0.1422
     24 H9         -0.8373   -4.8190   -5.6994 H         1 <0>         0.1483
     25 H10        -0.8428   -7.2558   -5.3635 H         1 <0>         0.1495
     26 H11        -1.1986   -6.6944   -1.1483 H         1 <0>         0.1414
     27 H12         0.4901   -0.3383    0.8195 H         1 <0>         0.4286
@<TRIPOS>BOND
     1    1    2 1
     2    1   16 1
     3    1   17 1
     4    1   18 1
     5    2    3 1
     6    2   19 1
     7    2   27 1
     8    3    4 1
     9    3   20 1
    10    3   21 1
    11    4    8 1
    12    4    5 2
    13    5    6 1
    14    5   22 1
    15    6    7 1
    16    7    8 2
    17    7    9 1
    18    9   14 ar
    19    9   10 ar
    20   10   11 ar
    21   10   23 1
    22   11   12 ar
    23   11   24 1
    24   12   13 ar
    25   12   25 1
    26   13   14 ar
    27   13   15 1
    28   14   26 1
@<TRIPOS>MOLECULE
ZINC83344427
   26    27     0     0     0
SMALL
USER_CHARGES

@<TRIPOS>ATOM
      1 C1         -0.0167    1.3777    0.0096 C.ar      1 <0>        -0.0709
      2 C2          1.1665    2.0887    0.0021 C.ar      1 <0>        -0.1212
      3 C3          2.3871    1.4123   -0.0132 C.ar      1 <0>         0.0045
      4 C4          2.4064    0.0179   -0.0209 C.ar      1 <0>        -0.1701
      5 C5          1.2129   -0.6873   -0.0133 C.ar      1 <0>         0.2233
      6 C6          0.0021   -0.0041    0.0020 C.ar      1 <0>        -0.1627
      7 N1          1.2267   -2.0842   -0.0214 N.pl3     1 <0>        -0.8722
      8 C7          3.6560    2.1718   -0.0217 C.2       1 <0>         0.1907
      9 N2          3.8518    3.4827   -0.0116 N.2       1 <0>        -0.5085
     10 C8          5.0616    3.9911   -0.0218 C.2       1 <0>        -0.0128
     11 C9          6.1426    3.1668   -0.0432 C.2       1 <0>        -0.1862
     12 S1          5.3392    1.5690   -0.0405 S.3       1 <0>         0.0910
     13 C10         5.2523    5.4859   -0.0103 C.3       1 <0>         0.0796
     14 N3          5.1769    5.9997   -1.3845 N.4       1 <0>        -0.6349
     15 H1         -0.9601    1.9031    0.0260 H         1 <0>         0.1359
     16 H2          1.1476    3.1685    0.0078 H         1 <0>         0.1313
     17 H3          3.3481   -0.5108   -0.0331 H         1 <0>         0.1255
     18 H4         -0.9268   -0.5550    0.0083 H         1 <0>         0.1324
     19 H5          2.0715   -2.5607   -0.0323 H         1 <0>         0.4025
     20 H6          0.3915   -2.5775   -0.0161 H         1 <0>         0.4056
     21 H7          7.1949    3.4096   -0.0543 H         1 <0>         0.2099
     22 H8          4.4708    5.9473    0.5935 H         1 <0>         0.1473
     23 H9          6.2276    5.7245    0.4138 H         1 <0>         0.1478
     24 H10         5.3046    7.0006   -1.3768 H         1 <0>         0.4401
     25 H11         5.9003    5.5726   -1.9434 H         1 <0>         0.4335
     26 H12         4.2741    5.7788   -1.7771 H         1 <0>         0.4386
@<TRIPOS>BOND
     1    1    6 ar
     2    1    2 ar
     3    1   15 1
     4    2    3 ar
     5    2   16 1
     6    3    4 ar
     7    3    8 1
     8    4    5 ar
     9    4   17 1
    10    5    6 ar
    11    5    7 1
    12    6   18 1
    13    7   19 1
    14    7   20 1
    15    8   12 1
    16    8    9 2
    17    9   10 1
    18   10   11 2
    19   10   13 1
    20   11   12 1
    21   11   21 1
    22   13   14 1
    23   13   22 1
    24   13   23 1
    25   14   24 1
    26   14   25 1
    27   14   26 1
@<TRIPOS>MOLECULE
ZINC67843499
   22    23     0     0     0
SMALL
USER_CHARGES

@<TRIPOS>ATOM
      1 C1         -0.0167    1.3767    0.0096 C.ar      1 <0>        -0.0822
      2 C2          1.1838    2.0880    0.0020 C.ar      1 <0>         0.0154
      3 C3          2.3968    1.3986   -0.0133 C.ar      1 <0>        -0.0610
      4 C4          2.4030    0.0177   -0.0208 C.ar      1 <0>        -0.0239
      5 C5          1.2087   -0.6826   -0.0136 C.ar      1 <0>        -0.0851
      6 C6          0.0021   -0.0041    0.0020 C.ar      1 <0>        -0.0213
      7 Cl1        -1.4904   -0.8907    0.0115 Cl        1 <0>        -0.0424
      8 Cl2         3.9111   -0.8418   -0.0398 Cl        1 <0>        -0.0427
      9 C7          1.1704    3.5666    0.0095 C.2       1 <0>         0.1421
     10 N1          2.1871    4.4172   -0.0011 N.2       1 <0>        -0.4833
     11 C8          1.9902    5.7146    0.0078 C.2       1 <0>         0.0422
     12 C9          0.7233    6.2074    0.0284 C.2       1 <0>        -0.1549
     13 S1         -0.2215    4.6888    0.0276 S.3       1 <0>         0.0292
     14 C10         3.1665    6.6566   -0.0042 C.3       1 <0>         0.1500
     15 O1          2.6963    8.0059    0.0094 O.3       1 <0>        -0.5718
     16 H1         -0.9585    1.9050    0.0259 H         1 <0>         0.1457
     17 H2          3.3290    1.9439   -0.0196 H         1 <0>         0.1541
     18 H3          1.2185   -1.7626   -0.0199 H         1 <0>         0.1523
     19 H4          0.3819    7.2320    0.0385 H         1 <0>         0.2079
     20 H5          3.7839    6.4781    0.8761 H         1 <0>         0.0685
     21 H6          3.7584    6.4871   -0.9037 H         1 <0>         0.0686
     22 H7          3.4009    8.6681    0.0027 H         1 <0>         0.3925
@<TRIPOS>BOND
     1    1    6 ar
     2    1    2 ar
     3    1   16 1
     4    2    3 ar
     5    2    9 1
     6    3    4 ar
     7    3   17 1
     8    4    5 ar
     9    4    8 1
    10    5    6 ar
    11    5   18 1
    12    6    7 1
    13    9   13 1
    14    9   10 2
    15   10   11 1
    16   11   12 2
    17   11   14 1
    18   12   13 1
    19   12   19 1
    20   14   15 1
    21   14   20 1
    22   14   21 1
    23   15   22 1
@<TRIPOS>MOLECULE
ZINC40414569
   30    31     0     0     0
SMALL
USER_CHARGES

@<TRIPOS>ATOM
      1 C1         -0.0187    1.5258    0.0104 C.3       1 <0>        -0.1900
      2 C2          0.0021   -0.0041    0.0020 C.3       1 <0>        -0.0095
      3 N1         -1.3761   -0.5125    0.0124 N.4       1 <0>        -0.5089
      4 C3         -1.3562   -1.9814    0.0044 C.3       1 <0>         0.0781
      5 C4         -2.7700   -2.5030    0.0151 C.2       1 <0>        -0.0088
      6 C5         -3.3827   -2.8334   -1.1528 C.2       1 <0>        -0.1846
      7 S1         -4.9783   -3.3693   -0.5480 S.3       1 <0>         0.0919
      8 C6         -4.6557   -3.0954    1.1892 C.2       1 <0>         0.1873
      9 N2         -3.4098   -2.6441    1.1520 N.2       1 <0>        -0.5102
     10 C7         -5.5389   -3.3177    2.3541 C.ar      1 <0>        -0.0445
     11 C8         -5.0859   -3.0291    3.6421 C.ar      1 <0>        -0.0635
     12 C9         -5.9150   -3.2388    4.7248 C.ar      1 <0>        -0.1204
     13 C10        -7.1927   -3.7345    4.5357 C.ar      1 <0>        -0.0827
     14 C11        -7.6477   -4.0232    3.2614 C.ar      1 <0>        -0.1148
     15 C12        -6.8310   -3.8117    2.1697 C.ar      1 <0>        -0.0840
     16 H1          1.0039    1.9031    0.0027 H         1 <0>         0.1082
     17 H2         -0.5459    1.8868   -0.8726 H         1 <0>         0.0804
     18 H3         -0.5289    1.8773    0.9072 H         1 <0>         0.0806
     19 H4          0.5123   -0.3556   -0.8948 H         1 <0>         0.1324
     20 H5          0.5293   -0.3651    0.8851 H         1 <0>         0.1325
     21 H6         -1.8484   -0.1871    0.8426 H         1 <0>         0.4309
     22 H7         -0.8460   -2.3329   -0.8924 H         1 <0>         0.1455
     23 H8         -0.8290   -2.3425    0.8874 H         1 <0>         0.1447
     24 H9         -3.0096   -2.7853   -2.1651 H         1 <0>         0.2100
     25 H10        -4.0885   -2.6427    3.7910 H         1 <0>         0.1342
     26 H11        -5.5656   -3.0158    5.7221 H         1 <0>         0.1366
     27 H12        -7.8376   -3.8973    5.3866 H         1 <0>         0.1359
     28 H13        -8.6460   -4.4103    3.1205 H         1 <0>         0.1383
     29 H14        -7.1891   -4.0325    1.1751 H         1 <0>         0.1285
     30 H15        -1.8641   -0.1783   -0.8050 H         1 <0>         0.4260
@<TRIPOS>BOND
     1    1    2 1
     2    1   16 1
     3    1   17 1
     4    1   18 1
     5    2    3 1
     6    2   19 1
     7    2   20 1
     8    3    4 1
     9    3   21 1
    10    3   30 1
    11    4    5 1
    12    4   22 1
    13    4   23 1
    14    5    9 1
    15    5    6 2
    16    6    7 1
    17    6   24 1
    18    7    8 1
    19    8    9 2
    20    8   10 1
    21   10   15 ar
    22   10   11 ar
    23   11   12 ar
    24   11   25 1
    25   12   13 ar
    26   12   26 1
    27   13   14 ar
    28   13   27 1
    29   14   15 ar
    30   14   28 1
    31   15   29 1
@<TRIPOS>MOLECULE
ZINC40999764
   32    33     0     0     0
SMALL
USER_CHARGES

@<TRIPOS>ATOM
      1 C1         -0.0178    1.4608    0.0101 C.3       1 <0>         0.0825
      2 N1          0.0021   -0.0041    0.0020 N.pl3     1 <0>        -0.6220
      3 C2          0.0241   -0.7433    1.2666 C.3       1 <0>         0.0817
      4 C3         -0.0000   -0.6950   -1.2098 C.ar      1 <0>         0.2546
      5 C4          0.0131   -2.0856   -1.2158 C.ar      1 <0>        -0.1992
      6 C5          0.0116   -2.7708   -2.4111 C.ar      1 <0>        -0.0264
      7 C6         -0.0037   -2.0676   -3.6173 C.ar      1 <0>        -0.1164
      8 C7         -0.0173   -0.6714   -3.6080 C.ar      1 <0>        -0.0056
      9 C8         -0.0209    0.0081   -2.4095 C.ar      1 <0>        -0.2058
     10 C9         -0.0049   -2.7996   -4.9012 C.2       1 <0>         0.2133
     11 N2         -0.0126   -2.3263   -6.1397 N.2       1 <0>        -0.5270
     12 C10        -0.0119   -3.1317   -7.1767 C.2       1 <0>        -0.0067
     13 C11        -0.0033   -4.4775   -6.9891 C.2       1 <0>        -0.1961
     14 S1          0.0115   -4.5619   -5.2027 S.3       1 <0>         0.0689
     15 C12        -0.0213   -2.5644   -8.5728 C.3       1 <0>         0.0794
     16 N3         -1.4045   -2.2762   -8.9750 N.4       1 <0>        -0.6347
     17 H1          1.0048    1.8381    0.0023 H         1 <0>         0.0584
     18 H2         -0.5450    1.8219   -0.8730 H         1 <0>         0.0736
     19 H3         -0.5280    1.8123    0.9069 H         1 <0>         0.0758
     20 H4         -0.9979   -0.9406    1.5900 H         1 <0>         0.0586
     21 H5          0.5496   -1.6879    1.1262 H         1 <0>         0.0743
     22 H6          0.5371   -0.1514    2.0246 H         1 <0>         0.0760
     23 H7          0.0249   -2.6289   -0.2825 H         1 <0>         0.1369
     24 H8          0.0225   -3.8507   -2.4151 H         1 <0>         0.1274
     25 H9         -0.0291   -0.1248   -4.5394 H         1 <0>         0.1334
     26 H10        -0.0356    1.0880   -2.4016 H         1 <0>         0.1353
     27 H11        -0.0018   -5.2752   -7.7172 H         1 <0>         0.2066
     28 H12         0.5627   -1.6443   -8.5951 H         1 <0>         0.1459
     29 H13         0.4142   -3.2879   -9.2619 H         1 <0>         0.1465
     30 H14        -1.9451   -3.1279   -8.9544 H         1 <0>         0.4334
     31 H15        -1.8076   -1.6064   -8.3371 H         1 <0>         0.4382
     32 H16        -1.4107   -1.8964   -9.9098 H         1 <0>         0.4392
@<TRIPOS>BOND
     1    1    2 1
     2    1   17 1
     3    1   18 1
     4    1   19 1
     5    2    3 1
     6    2    4 1
     7    3   20 1
     8    3   21 1
     9    3   22 1
    10    4    9 ar
    11    4    5 ar
    12    5    6 ar
    13    5   23 1
    14    6    7 ar
    15    6   24 1
    16    7    8 ar
    17    7   10 1
    18    8    9 ar
    19    8   25 1
    20    9   26 1
    21   10   14 1
    22   10   11 2
    23   11   12 1
    24   12   13 2
    25   12   15 1
    26   13   14 1
    27   13   27 1
    28   15   16 1
    29   15   28 1
    30   15   29 1
    31   16   30 1
    32   16   31 1
    33   16   32 1
@<TRIPOS>MOLECULE
ZINC40999826
   33    35     0     0     0
SMALL
USER_CHARGES

@<TRIPOS>ATOM
      1 C1         -0.0178    1.4648    0.0101 C.3       1 <0>        -0.0467
      2 N1          0.0021   -0.0041    0.0020 N.4       1 <0>        -0.5085
      3 C2          0.7126   -0.4907    1.1921 C.3       1 <0>         0.0768
      4 C3          0.7330   -1.9975    1.1838 C.2       1 <0>        -0.0091
      5 C4          1.8062   -2.6613    0.6773 C.2       1 <0>        -0.1846
      6 S1          1.2913   -4.3565    0.9220 S.3       1 <0>         0.0895
      7 C5         -0.2924   -3.9971    1.6702 C.2       1 <0>         0.1876
      8 N2         -0.2824   -2.6712    1.6703 N.2       1 <0>        -0.5093
      9 C6         -1.3307   -4.9275    2.1612 C.ar      1 <0>        -0.0386
     10 C7         -2.5186   -4.4179    2.7152 C.ar      1 <0>        -0.0806
     11 C8         -3.4869   -5.2517    3.1729 C.ar      1 <0>        -0.0967
     12 C9         -3.3094   -6.6453    3.0966 C.ar      1 <0>        -0.0307
     13 C10        -4.2973   -7.5284    3.5636 C.ar      1 <0>        -0.1121
     14 C11        -4.0973   -8.8721    3.4761 C.ar      1 <0>        -0.0954
     15 C12        -2.9244   -9.3894    2.9294 C.ar      1 <0>        -0.1085
     16 C13        -1.9451   -8.5655    2.4666 C.ar      1 <0>        -0.1004
     17 C14        -2.1161   -7.1714    2.5397 C.ar      1 <0>        -0.0578
     18 C15        -1.1287   -6.2938    2.0670 C.ar      1 <0>        -0.0528
     19 H1          1.0047    1.8421    0.0024 H         1 <0>         0.1250
     20 H2         -0.5450    1.8259   -0.8730 H         1 <0>         0.1276
     21 H3         -0.5280    1.8163    0.9069 H         1 <0>         0.1252
     22 H4         -0.9445   -0.3533    0.0092 H         1 <0>         0.4333
     23 H5          1.7352   -0.1134    1.1844 H         1 <0>         0.1456
     24 H6          0.2024   -0.1392    2.0889 H         1 <0>         0.1449
     25 H7          2.7169   -2.2725    0.2462 H         1 <0>         0.2100
     26 H8         -2.6621   -3.3493    2.7775 H         1 <0>         0.1340
     27 H9         -4.3936   -4.8453    3.5960 H         1 <0>         0.1390
     28 H10        -5.2113   -7.1428    3.9906 H         1 <0>         0.1347
     29 H11        -4.8591   -9.5476    3.8363 H         1 <0>         0.1317
     30 H12        -2.7905  -10.4595    2.8724 H         1 <0>         0.1318
     31 H13        -1.0410   -8.9801    2.0457 H         1 <0>         0.1332
     32 H14        -0.2167   -6.6810    1.6371 H         1 <0>         0.1334
     33 H15         0.4744   -0.3295   -0.8281 H         1 <0>         0.4283
@<TRIPOS>BOND
     1    1    2 1
     2    1   19 1
     3    1   20 1
     4    1   21 1
     5    2    3 1
     6    2   22 1
     7    2   33 1
     8    3    4 1
     9    3   23 1
    10    3   24 1
    11    4    8 1
    12    4    5 2
    13    5    6 1
    14    5   25 1
    15    6    7 1
    16    7    8 2
    17    7    9 1
    18    9   18 ar
    19    9   10 ar
    20   10   11 ar
    21   10   26 1
    22   11   12 ar
    23   11   27 1
    24   12   17 ar
    25   12   13 ar
    26   13   14 ar
    27   13   28 1
    28   14   15 ar
    29   14   29 1
    30   15   16 ar
    31   15   30 1
    32   16   17 ar
    33   16   31 1
    34   17   18 ar
    35   18   32 1
@<TRIPOS>MOLECULE
ZINC02564312
   21    22     0     0     0
SMALL
USER_CHARGES
4-methyl-2-phenyl-thiazole
@<TRIPOS>ATOM
      1 C1          1.0435    3.5240    0.0105 C.3       1 <0>        -0.0849
      2 C2          1.0962    2.0180    0.0024 C.2       1 <0>         0.0583
      3 C3          2.2960    1.3786   -0.0125 C.2       1 <0>        -0.2048
      4 S1          1.7604   -0.3278   -0.0165 S.3       1 <0>         0.0066
      5 C4          0.0021   -0.0041    0.0020 C.2       1 <0>         0.1593
      6 N1         -0.0159    1.3214    0.0093 N.2       1 <0>        -0.4972
      7 C5         -1.1278   -0.9580    0.0073 C.ar      1 <0>        -0.0202
      8 C6         -2.4416   -0.4880    0.0277 C.ar      1 <0>        -0.0700
      9 C7         -3.4913   -1.3833    0.0281 C.ar      1 <0>        -0.1206
     10 C8         -3.2436   -2.7444    0.0185 C.ar      1 <0>        -0.0989
     11 C9         -1.9433   -3.2169    0.0031 C.ar      1 <0>        -0.1181
     12 C10        -0.8847   -2.3321   -0.0023 C.ar      1 <0>        -0.0914
     13 H1          1.0408    3.8820    1.0401 H         1 <0>         0.0754
     14 H2          1.9152    3.9209   -0.5099 H         1 <0>         0.0751
     15 H3          0.1364    3.8586   -0.4928 H         1 <0>         0.0753
     16 H4          3.2954    1.7878   -0.0203 H         1 <0>         0.1998
     17 H5         -2.6362    0.5743    0.0393 H         1 <0>         0.1357
     18 H6         -4.5086   -1.0208    0.0398 H         1 <0>         0.1320
     19 H7         -4.0688   -3.4411    0.0227 H         1 <0>         0.1295
     20 H8         -1.7566   -4.2806   -0.0043 H         1 <0>         0.1322
     21 H9          0.1298   -2.7022   -0.0144 H         1 <0>         0.1271
@<TRIPOS>BOND
     1    1    2 1
     2    1   13 1
     3    1   14 1
     4    1   15 1
     5    2    6 1
     6    2    3 2
     7    3    4 1
     8    3   16 1
     9    4    5 1
    10    5    6 2
    11    5    7 1
    12    7   12 ar
    13    7    8 ar
    14    8    9 ar
    15    8   17 1
    16    9   10 ar
    17    9   18 1
    18   10   11 ar
    19   10   19 1
    20   11   12 ar
    21   11   20 1
    22   12   21 1
@<TRIPOS>MOLECULE
ZINC80803189
   30    31     0     0     0
SMALL
USER_CHARGES

@<TRIPOS>ATOM
      1 C1         -0.0187    1.5258    0.0104 C.3       1 <0>        -0.1805
      2 C2          0.0021   -0.0041    0.0020 C.3       1 <0>         0.1156
      3 H1          0.5123   -0.3556   -0.8948 H         1 <0>         0.1516
      4 C3          0.7309   -0.5033    1.2229 C.2       1 <0>         0.0006
      5 C4          2.0861   -0.6102    1.2105 C.2       1 <0>        -0.1719
      6 S1          2.3834   -1.2283    2.8623 S.3       1 <0>         0.1150
      7 C5          0.6749   -1.2765    3.3874 C.2       1 <0>         0.1735
      8 N1          0.0589   -0.8303    2.3017 N.2       1 <0>        -0.5274
      9 C6          0.1035   -1.6959    4.6851 C.ar      1 <0>        -0.0205
     10 C7         -1.2772   -1.6614    4.8864 C.ar      1 <0>        -0.0521
     11 C8         -1.8052   -2.0541    6.0986 C.ar      1 <0>        -0.0972
     12 C9         -0.9686   -2.4821    7.1155 C.ar      1 <0>        -0.0061
     13 C10         0.4030   -2.5182    6.9223 C.ar      1 <0>        -0.0307
     14 C11         0.9422   -2.1329    5.7110 C.ar      1 <0>        -0.0670
     15 Cl1         1.4448   -3.0557    8.2028 Cl        1 <0>        -0.0212
     16 Cl2        -1.6406   -2.9748    8.6384 Cl        1 <0>        -0.0209
     17 N2         -1.3761   -0.5125    0.0124 N.4       1 <0>        -0.5008
     18 C12        -2.0500   -0.1262   -1.2343 C.3       1 <0>        -0.0523
     19 H2          1.0039    1.9031    0.0027 H         1 <0>         0.1067
     20 H3         -0.5459    1.8868   -0.8726 H         1 <0>         0.0905
     21 H4         -0.5289    1.8773    0.9072 H         1 <0>         0.0843
     22 H5          2.7885   -0.3849    0.4217 H         1 <0>         0.2120
     23 H6         -1.9311   -1.3275    4.0943 H         1 <0>         0.1478
     24 H7         -2.8735   -2.0274    6.2550 H         1 <0>         0.1569
     25 H8          2.0110   -2.1655    5.5594 H         1 <0>         0.1487
     26 H9         -1.3629   -1.5185    0.0898 H         1 <0>         0.4317
     27 H10        -2.0643    0.9605   -1.3179 H         1 <0>         0.1258
     28 H11        -1.5132   -0.5489   -2.0836 H         1 <0>         0.1246
     29 H12        -3.0726   -0.5034   -1.2266 H         1 <0>         0.1289
     30 H13        -1.8730   -0.1212    0.7986 H         1 <0>         0.4345
@<TRIPOS>BOND
     1    1    2 1
     2    1   19 1
     3    1   20 1
     4    1   21 1
     5    2    3 1
     6    2    4 1
     7    2   17 1
     8    4    8 1
     9    4    5 2
    10    5    6 1
    11    5   22 1
    12    6    7 1
    13    7    8 2
    14    7    9 1
    15    9   14 ar
    16    9   10 ar
    17   10   11 ar
    18   10   23 1
    19   11   12 ar
    20   11   24 1
    21   12   13 ar
    22   12   16 1
    23   13   14 ar
    24   13   15 1
    25   14   25 1
    26   17   18 1
    27   17   26 1
    28   17   30 1
    29   18   27 1
    30   18   28 1
    31   18   29 1
@<TRIPOS>MOLECULE
ZINC52859452
   30    31     0     0     0
SMALL
USER_CHARGES

@<TRIPOS>ATOM
      1 C1         -0.0187    1.5258    0.0104 C.3       1 <0>        -0.1901
      2 C2          0.0021   -0.0041    0.0020 C.3       1 <0>        -0.0095
      3 N1         -1.3761   -0.5125    0.0124 N.4       1 <0>        -0.5092
      4 C3         -1.3562   -1.9814    0.0044 C.3       1 <0>         0.0783
      5 C4         -2.7700   -2.5030    0.0151 C.2       1 <0>        -0.0125
      6 C5         -3.3825   -2.8334   -1.1525 C.2       1 <0>        -0.1874
      7 S1         -4.9779   -3.3700   -0.5480 S.3       1 <0>         0.1371
      8 C6         -4.6556   -3.0964    1.1894 C.2       1 <0>         0.1627
      9 N2         -3.4100   -2.6442    1.1523 N.2       1 <0>        -0.4987
     10 C7         -5.5385   -3.3197    2.3538 C.ar      1 <0>        -0.0565
     11 C8         -5.0860   -3.0311    3.6420 C.ar      1 <0>        -0.0324
     12 C9         -5.9154   -3.2418    4.7253 C.ar      1 <0>        -0.0499
     13 C10        -7.1942   -3.7390    4.5365 C.ar      1 <0>        -0.0489
     14 C11        -7.6498   -4.0273    3.2634 C.ar      1 <0>        -0.1319
     15 C12        -6.8320   -3.8152    2.1692 C.ar      1 <0>         0.1335
     16 F1         -7.2800   -4.0920    0.9250 F         1 <0>        -0.1185
     17 Cl1        -5.3537   -2.8832    6.3283 Cl        1 <0>        -0.0372
     18 H1          1.0039    1.9031    0.0027 H         1 <0>         0.1083
     19 H2         -0.5459    1.8868   -0.8726 H         1 <0>         0.0805
     20 H3         -0.5289    1.8773    0.9072 H         1 <0>         0.0807
     21 H4          0.5123   -0.3556   -0.8948 H         1 <0>         0.1326
     22 H5          0.5293   -0.3651    0.8851 H         1 <0>         0.1328
     23 H6         -1.8484   -0.1871    0.8426 H         1 <0>         0.4309
     24 H7         -0.8460   -2.3329   -0.8924 H         1 <0>         0.1464
     25 H8         -0.8290   -2.3425    0.8874 H         1 <0>         0.1454
     26 H9         -3.0092   -2.7852   -2.1648 H         1 <0>         0.2117
     27 H10        -4.0889   -2.6440    3.7911 H         1 <0>         0.1555
     28 H11        -7.8384   -3.9025    5.3878 H         1 <0>         0.1580
     29 H12        -8.6480   -4.4148    3.1231 H         1 <0>         0.1622
     30 H13        -1.8641   -0.1783   -0.8050 H         1 <0>         0.4261
@<TRIPOS>BOND
     1    1    2 1
     2    1   18 1
     3    1   19 1
     4    1   20 1
     5    2    3 1
     6    2   21 1
     7    2   22 1
     8    3    4 1
     9    3   23 1
    10    3   30 1
    11    4    5 1
    12    4   24 1
    13    4   25 1
    14    5    9 1
    15    5    6 2
    16    6    7 1
    17    6   26 1
    18    7    8 1
    19    8    9 2
    20    8   10 1
    21   10   15 ar
    22   10   11 ar
    23   11   12 ar
    24   11   27 1
    25   12   13 ar
    26   12   17 1
    27   13   14 ar
    28   13   28 1
    29   14   15 ar
    30   14   29 1
    31   15   16 1
@<TRIPOS>MOLECULE
ZINC41010122
   33    34     0     0     0
SMALL
USER_CHARGES

@<TRIPOS>ATOM
      1 C1         -0.0187    1.5258    0.0104 C.3       1 <0>        -0.1857
      2 C2          0.0021   -0.0041    0.0020 C.3       1 <0>         0.0240
      3 C3          0.7182   -0.4975   -1.2568 C.3       1 <0>        -0.1842
      4 N1          0.7126   -0.4907    1.1921 N.4       1 <0>        -0.5065
      5 C4         -0.0398   -0.1189    2.3978 C.3       1 <0>         0.0745
      6 C5          0.6890   -0.6181    3.6187 C.2       1 <0>        -0.0143
      7 C6          1.5342    0.2069    4.2918 C.2       1 <0>        -0.2012
      8 S1          2.0893   -0.8828    5.5968 S.3       1 <0>         0.1456
      9 C7          1.1376   -2.3143    5.1046 C.2       1 <0>         0.1549
     10 N2          0.5048   -1.8483    4.0369 N.2       1 <0>        -0.4947
     11 C8          1.0706   -3.6549    5.7243 C.ar      1 <0>        -0.0111
     12 C9          0.2574   -4.6439    5.1690 C.ar      1 <0>        -0.0529
     13 C10         0.1991   -5.8931    5.7511 C.ar      1 <0>        -0.0973
     14 C11         0.9446   -6.1682    6.8839 C.ar      1 <0>        -0.0686
     15 C12         1.7532   -5.1930    7.4413 C.ar      1 <0>        -0.0286
     16 C13         1.8251   -3.9388    6.8643 C.ar      1 <0>        -0.0191
     17 Cl1         2.8454   -2.7182    7.5591 Cl        1 <0>        -0.0082
     18 Cl2         2.6839   -5.5474    8.8632 Cl        1 <0>        -0.0228
     19 H1          1.0039    1.9031    0.0027 H         1 <0>         0.0822
     20 H2         -0.5459    1.8868   -0.8726 H         1 <0>         0.1072
     21 H3         -0.5289    1.8773    0.9072 H         1 <0>         0.0815
     22 H4         -1.0205   -0.3814    0.0098 H         1 <0>         0.1405
     23 H5          1.7408   -0.1202   -1.2645 H         1 <0>         0.0812
     24 H6          0.7330   -1.5874   -1.2628 H         1 <0>         0.0817
     25 H7          0.1910   -0.1364   -2.1398 H         1 <0>         0.1077
     26 H8          0.7982   -1.4950    1.1455 H         1 <0>         0.4306
     27 H9         -0.1324    0.9660    2.4481 H         1 <0>         0.1457
     28 H10        -1.0328   -0.5668    2.3589 H         1 <0>         0.1441
     29 H11         1.7978    1.2352    4.0933 H         1 <0>         0.2074
     30 H12        -0.3257   -4.4314    4.2850 H         1 <0>         0.1513
     31 H13        -0.4304   -6.6585    5.3218 H         1 <0>         0.1546
     32 H14         0.8950   -7.1481    7.3354 H         1 <0>         0.1566
     33 H15         1.6317   -0.0761    1.2281 H         1 <0>         0.4240
@<TRIPOS>BOND
     1    1    2 1
     2    1   19 1
     3    1   20 1
     4    1   21 1
     5    2    3 1
     6    2    4 1
     7    2   22 1
     8    3   23 1
     9    3   24 1
    10    3   25 1
    11    4    5 1
    12    4   26 1
    13    4   33 1
    14    5    6 1
    15    5   27 1
    16    5   28 1
    17    6   10 1
    18    6    7 2
    19    7    8 1
    20    7   29 1
    21    8    9 1
    22    9   10 2
    23    9   11 1
    24   11   16 ar
    25   11   12 ar
    26   12   13 ar
    27   12   30 1
    28   13   14 ar
    29   13   31 1
    30   14   15 ar
    31   14   32 1
    32   15   16 ar
    33   15   18 1
    34   16   17 1
@<TRIPOS>MOLECULE
ZINC80803190
   30    31     0     0     0
SMALL
USER_CHARGES

@<TRIPOS>ATOM
      1 C1         -0.0187    1.5258    0.0104 C.3       1 <0>        -0.1804
      2 C2          0.0021   -0.0041    0.0020 C.3       1 <0>         0.1155
      3 H1          0.5123   -0.3556   -0.8948 H         1 <0>         0.1515
      4 C3         -1.4117   -0.5257    0.0127 C.2       1 <0>         0.0006
      5 C4         -2.0954   -0.6637   -1.1542 C.2       1 <0>        -0.1721
      6 S1         -3.6548   -1.2975   -0.5500 S.3       1 <0>         0.1152
      7 C5         -3.2270   -1.3094    1.1860 C.2       1 <0>         0.1736
      8 N1         -1.9831   -0.8526    1.1481 N.2       1 <0>        -0.5275
      9 C6         -4.0398   -1.7228    2.3500 C.ar      1 <0>        -0.0206
     10 C7         -3.5082   -1.6459    3.6383 C.ar      1 <0>        -0.0520
     11 C8         -4.2708   -2.0322    4.7207 C.ar      1 <0>        -0.0972
     12 C9         -5.5618   -2.4959    4.5318 C.ar      1 <0>        -0.0061
     13 C10        -6.0952   -2.5751    3.2555 C.ar      1 <0>        -0.0308
     14 C11        -5.3430   -2.1856    2.1651 C.ar      1 <0>        -0.0670
     15 Cl1        -7.7144   -3.1581    3.0276 Cl        1 <0>        -0.0211
     16 Cl2        -6.5154   -2.9803    5.8992 Cl        1 <0>        -0.0210
     17 N2          0.7126   -0.4907    1.1921 N.4       1 <0>        -0.5008
     18 C12         2.1220   -0.0825    1.1220 C.3       1 <0>        -0.0523
     19 H2          1.0039    1.9031    0.0027 H         1 <0>         0.0905
     20 H3         -0.5459    1.8868   -0.8726 H         1 <0>         0.1067
     21 H4         -0.5289    1.8773    0.9072 H         1 <0>         0.0843
     22 H5         -1.7834   -0.4495   -2.1657 H         1 <0>         0.2120
     23 H6         -2.5014   -1.2848    3.7873 H         1 <0>         0.1479
     24 H7         -3.8599   -1.9733    5.7178 H         1 <0>         0.1569
     25 H8         -5.7609   -2.2433    1.1709 H         1 <0>         0.1487
     26 H9          0.2896   -0.0986    2.0201 H         1 <0>         0.4345
     27 H10         2.5788   -0.5061    0.2276 H         1 <0>         0.1246
     28 H11         2.1837    1.0050    1.0814 H         1 <0>         0.1258
     29 H12         2.6492   -0.4436    2.0051 H         1 <0>         0.1289
     30 H13         0.6554   -1.4974    1.2298 H         1 <0>         0.4317
@<TRIPOS>BOND
     1    1    2 1
     2    1   19 1
     3    1   20 1
     4    1   21 1
     5    2    3 1
     6    2    4 1
     7    2   17 1
     8    4    8 1
     9    4    5 2
    10    5    6 1
    11    5   22 1
    12    6    7 1
    13    7    8 2
    14    7    9 1
    15    9   14 ar
    16    9   10 ar
    17   10   11 ar
    18   10   23 1
    19   11   12 ar
    20   11   24 1
    21   12   13 ar
    22   12   16 1
    23   13   14 ar
    24   13   15 1
    25   14   25 1
    26   17   18 1
    27   17   26 1
    28   17   30 1
    29   18   27 1
    30   18   28 1
    31   18   29 1
@<TRIPOS>MOLECULE
ZINC83862446
   33    34     0     0     0
SMALL
USER_CHARGES

@<TRIPOS>ATOM
      1 C1         -0.0187    1.5258    0.0104 C.3       1 <0>        -0.1881
      2 C2          0.0021   -0.0041    0.0020 C.3       1 <0>        -0.0152
      3 N1          0.6897   -0.4778   -1.2066 N.4       1 <0>        -0.5008
      4 C3          0.7096   -1.9467   -1.2147 C.3       1 <0>         0.1168
      5 H1          1.1577   -2.3090   -0.2895 H         1 <0>         0.1509
      6 C4         -0.7215   -2.4755   -1.3296 C.3       1 <0>        -0.1799
      7 C5          1.5201   -2.4316   -2.3890 C.2       1 <0>         0.0019
      8 C6          2.1047   -3.6586   -2.3526 C.2       1 <0>        -0.1751
      9 S1          2.9009   -3.6921   -3.9538 S.3       1 <0>         0.1080
     10 C7          2.3697   -2.0729   -4.4950 C.2       1 <0>         0.1792
     11 N2          1.6584   -1.6726   -3.4504 N.2       1 <0>        -0.5305
     12 C8          2.6453   -1.3714   -5.7671 C.ar      1 <0>        -0.0250
     13 C9          2.1322   -0.0922   -5.9874 C.ar      1 <0>        -0.0641
     14 C10         2.3926    0.5575   -7.1762 C.ar      1 <0>        -0.1044
     15 C11         3.1607   -0.0560   -8.1497 C.ar      1 <0>        -0.0769
     16 C12         3.6729   -1.3247   -7.9381 C.ar      1 <0>        -0.0329
     17 C13         3.4240   -1.9831   -6.7498 C.ar      1 <0>        -0.0789
     18 Cl1         4.6351   -2.0865   -9.1658 Cl        1 <0>        -0.0428
     19 H2          1.0039    1.9031    0.0027 H         1 <0>         0.0804
     20 H3         -0.5459    1.8868   -0.8726 H         1 <0>         0.0809
     21 H4         -0.5289    1.8773    0.9072 H         1 <0>         0.1076
     22 H5          0.5293   -0.3651    0.8851 H         1 <0>         0.1314
     23 H6         -1.0205   -0.3814    0.0098 H         1 <0>         0.1329
     24 H7          0.2017   -0.1436   -2.0240 H         1 <0>         0.4323
     25 H8         -0.7067   -3.5654   -1.3356 H         1 <0>         0.1067
     26 H9         -1.3078   -2.1247   -0.4802 H         1 <0>         0.0896
     27 H10        -1.1696   -2.1131   -2.2548 H         1 <0>         0.0841
     28 H11         2.0922   -4.4056   -1.5728 H         1 <0>         0.2111
     29 H12         1.5322    0.3880   -5.2286 H         1 <0>         0.1381
     30 H13         1.9956    1.5472   -7.3474 H         1 <0>         0.1468
     31 H14         3.3613    0.4569   -9.0788 H         1 <0>         0.1471
     32 H15         3.8275   -2.9710   -6.5836 H         1 <0>         0.1398
     33 H16         1.6363   -0.1286   -1.2138 H         1 <0>         0.4292
@<TRIPOS>BOND
     1    1    2 1
     2    1   19 1
     3    1   20 1
     4    1   21 1
     5    2    3 1
     6    2   22 1
     7    2   23 1
     8    3    4 1
     9    3   24 1
    10    3   33 1
    11    4    5 1
    12    4    6 1
    13    4    7 1
    14    6   25 1
    15    6   26 1
    16    6   27 1
    17    7   11 1
    18    7    8 2
    19    8    9 1
    20    8   28 1
    21    9   10 1
    22   10   11 2
    23   10   12 1
    24   12   17 ar
    25   12   13 ar
    26   13   14 ar
    27   13   29 1
    28   14   15 ar
    29   14   30 1
    30   15   16 ar
    31   15   31 1
    32   16   17 ar
    33   16   18 1
    34   17   32 1
@<TRIPOS>MOLECULE
ZINC62792834
   31    33     0     0     0
SMALL
USER_CHARGES

@<TRIPOS>ATOM
      1 C1         -0.0168    1.3912    0.0097 C.ar      1 <0>        -0.0507
      2 C2          1.1695    2.0952    0.0021 C.ar      1 <0>        -0.1357
      3 C3          2.3789    1.4197   -0.0135 C.ar      1 <0>         0.1473
      4 C4          2.4040    0.0328   -0.0216 C.ar      1 <0>        -0.0811
      5 C5          1.2228   -0.6807   -0.0137 C.ar      1 <0>        -0.0289
      6 C6          0.0021   -0.0041    0.0020 C.ar      1 <0>        -0.0388
      7 C7         -1.2667   -0.7631    0.0105 C.2       1 <0>         0.1762
      8 N1         -1.4627   -2.0742    0.0109 N.2       1 <0>        -0.5029
      9 C8         -2.6730   -2.5821    0.0199 C.2       1 <0>        -0.0101
     10 C9         -3.7536   -1.7576    0.0291 C.2       1 <0>        -0.1770
     11 S1         -2.9498   -0.1600    0.0311 S.3       1 <0>         0.1082
     12 C10        -2.8642   -4.0770    0.0196 C.3       1 <0>         0.0827
     13 N2         -2.8170   -4.5763   -1.3611 N.4       1 <0>        -0.4785
     14 C11        -3.0034   -6.0335   -1.3614 C.3       1 <0>        -0.0843
     15 C12        -1.8432   -6.8940   -1.8659 C.3       1 <0>        -0.1533
     16 C13        -3.1032   -6.7326   -2.7187 C.3       1 <0>        -0.1538
     17 Cl1         3.9235   -0.8065   -0.0424 Cl        1 <0>        -0.0253
     18 F1          3.5377    2.1140   -0.0213 F         1 <0>        -0.1104
     19 H1         -0.9589    1.9191    0.0260 H         1 <0>         0.1465
     20 H2          1.1554    3.1751    0.0081 H         1 <0>         0.1623
     21 H3          1.2428   -1.7605   -0.0204 H         1 <0>         0.1555
     22 H4         -4.8060   -2.0001    0.0371 H         1 <0>         0.2125
     23 H5         -2.0709   -4.5449    0.6025 H         1 <0>         0.1462
     24 H6         -3.8308   -4.3197    0.4609 H         1 <0>         0.1468
     25 H7         -3.5514   -4.1432   -1.9007 H         1 <0>         0.4268
     26 H8         -3.6070   -6.4304   -0.5452 H         1 <0>         0.1796
     27 H9         -0.9417   -6.3789   -2.1976 H         1 <0>         0.1213
     28 H10        -1.6833   -7.8572   -1.3815 H         1 <0>         0.1346
     29 H11        -3.7723   -7.5897   -2.7953 H         1 <0>         0.1350
     30 H12        -3.0306   -6.1114   -3.6114 H         1 <0>         0.1205
     31 H13        -1.9222   -4.3516   -1.7696 H         1 <0>         0.4288
@<TRIPOS>BOND
     1    1    6 ar
     2    1    2 ar
     3    1   19 1
     4    2    3 ar
     5    2   20 1
     6    3    4 ar
     7    3   18 1
     8    4    5 ar
     9    4   17 1
    10    5    6 ar
    11    5   21 1
    12    6    7 1
    13    7   11 1
    14    7    8 2
    15    8    9 1
    16    9   10 2
    17    9   12 1
    18   10   11 1
    19   10   22 1
    20   12   13 1
    21   12   23 1
    22   12   24 1
    23   13   14 1
    24   13   25 1
    25   13   31 1
    26   14   16 1
    27   14   15 1
    28   14   26 1
    29   15   16 1
    30   15   27 1
    31   15   28 1
    32   16   29 1
    33   16   30 1
@<TRIPOS>MOLECULE
ZINC83862449
   33    34     0     0     0
SMALL
USER_CHARGES

@<TRIPOS>ATOM
      1 C1         -0.0187    1.5258    0.0104 C.3       1 <0>        -0.1881
      2 C2          0.0021   -0.0041    0.0020 C.3       1 <0>        -0.0152
      3 N1          0.6897   -0.4778   -1.2066 N.4       1 <0>        -0.5008
      4 C3          0.7096   -1.9467   -1.2147 C.3       1 <0>         0.1168
      5 H1         -0.3082   -2.3244   -1.1174 H         1 <0>         0.1508
      6 C4          1.5550   -2.4517   -0.0438 C.3       1 <0>        -0.1799
      7 C5          1.3045   -2.4338   -2.5107 C.2       1 <0>         0.0019
      8 C6          0.9831   -3.6662   -2.9868 C.2       1 <0>        -0.1752
      9 S1          1.9467   -3.6995   -4.4931 S.3       1 <0>         0.1079
     10 C7          2.6702   -2.0731   -4.3246 C.2       1 <0>         0.1794
     11 N2          2.1293   -1.6673   -3.1845 N.2       1 <0>        -0.5306
     12 C8          3.6139   -1.3685   -5.2189 C.ar      1 <0>        -0.0251
     13 C9          4.0653   -0.0887   -4.8928 C.ar      1 <0>        -0.0640
     14 C10         4.9456    0.5638   -5.7309 C.ar      1 <0>        -0.1045
     15 C11         5.3815   -0.0473   -6.8930 C.ar      1 <0>        -0.0768
     16 C12         4.9378   -1.3167   -7.2228 C.ar      1 <0>        -0.0330
     17 C13         4.0610   -1.9826   -6.3891 C.ar      1 <0>        -0.0789
     18 Cl1         5.4899   -2.0752   -8.6834 Cl        1 <0>        -0.0428
     19 H2          1.0039    1.9031    0.0027 H         1 <0>         0.0809
     20 H3         -0.5459    1.8868   -0.8726 H         1 <0>         0.0804
     21 H4         -0.5289    1.8773    0.9072 H         1 <0>         0.1076
     22 H5          0.5293   -0.3651    0.8851 H         1 <0>         0.1329
     23 H6         -1.0205   -0.3814    0.0098 H         1 <0>         0.1313
     24 H7          0.2017   -0.1436   -2.0240 H         1 <0>         0.4292
     25 H8          1.1248   -2.0993    0.8937 H         1 <0>         0.0896
     26 H9          1.5698   -3.5416   -0.0498 H         1 <0>         0.1067
     27 H10         2.5729   -2.0740   -0.1410 H         1 <0>         0.0841
     28 H11         0.3280   -4.4171   -2.5704 H         1 <0>         0.2111
     29 H12         3.7258    0.3900   -3.9862 H         1 <0>         0.1382
     30 H13         5.2950    1.5543   -5.4794 H         1 <0>         0.1468
     31 H14         6.0704    0.4680   -7.5459 H         1 <0>         0.1471
     32 H15         3.7188   -2.9745   -6.6446 H         1 <0>         0.1398
     33 H16         1.6363   -0.1286   -1.2138 H         1 <0>         0.4324
@<TRIPOS>BOND
     1    1    2 1
     2    1   19 1
     3    1   20 1
     4    1   21 1
     5    2    3 1
     6    2   22 1
     7    2   23 1
     8    3    4 1
     9    3   24 1
    10    3   33 1
    11    4    5 1
    12    4    6 1
    13    4    7 1
    14    6   25 1
    15    6   26 1
    16    6   27 1
    17    7   11 1
    18    7    8 2
    19    8    9 1
    20    8   28 1
    21    9   10 1
    22   10   11 2
    23   10   12 1
    24   12   17 ar
    25   12   13 ar
    26   13   14 ar
    27   13   29 1
    28   14   15 ar
    29   14   30 1
    30   15   16 ar
    31   15   31 1
    32   16   17 ar
    33   16   18 1
    34   17   32 1
@<TRIPOS>MOLECULE
ZINC21474150
   29    31     0     0     0
SMALL
USER_CHARGES
4-[2-(3-chlorophenyl)thiazol-4-yl]benzonitrile
@<TRIPOS>ATOM
      1 C1         -1.2212    1.7481    0.0173 C.ar      1 <0>        -0.1050
      2 C2         -1.2470    3.1278    0.0298 C.ar      1 <0>        -0.0649
      3 C3         -0.0504    3.8455    0.0227 C.ar      1 <0>        -0.0061
      4 C4          1.1663    3.1622    0.0079 C.ar      1 <0>        -0.0844
      5 C5          1.1789    1.7817    0.0004 C.ar      1 <0>        -0.0342
      6 C6         -0.0126    1.0758    0.0080 C.ar      1 <0>        -0.0890
      7 Cl1         2.6910    0.9291   -0.0181 Cl        1 <0>        -0.0564
      8 C7         -0.0715    5.3241    0.0314 C.2       1 <0>         0.1584
      9 N1         -1.1079    6.1462    0.0399 N.2       1 <0>        -0.4846
     10 C8         -0.9449    7.4563    0.0503 C.2       1 <0>         0.0917
     11 C9          0.3252    7.9758    0.0416 C.2       1 <0>        -0.1838
     12 S1          1.2966    6.4745    0.0250 S.3       1 <0>         0.0402
     13 C10        -2.1215    8.3565    0.0657 C.ar      1 <0>         0.0051
     14 C11        -1.9404    9.7405    0.0770 C.ar      1 <0>        -0.1066
     15 C12        -3.0285   10.5749    0.0854 C.ar      1 <0>        -0.0672
     16 C13        -4.3197   10.0387    0.0947 C.ar      1 <0>        -0.0233
     17 C14        -4.4997    8.6522    0.0891 C.ar      1 <0>        -0.0696
     18 C15        -3.4100    7.8200    0.0745 C.ar      1 <0>        -0.0877
     19 C16        -5.4569   10.9088    0.1104 C.1       1 <0>         0.2498
     20 N2         -6.3591   11.5991    0.1229 N.1       1 <0>        -0.4104
     21 H1         -2.1470    1.1920    0.0187 H         1 <0>         0.1436
     22 H2         -2.1916    3.6511    0.0413 H         1 <0>         0.1438
     23 H3          2.0958    3.7121    0.0020 H         1 <0>         0.1384
     24 H4          0.0021   -0.0041    0.0020 H         1 <0>         0.1415
     25 H5          0.6486    9.0062    0.0441 H         1 <0>         0.2057
     26 H6         -0.9429   10.1544    0.0750 H         1 <0>         0.1363
     27 H7         -2.8882   11.6457    0.0894 H         1 <0>         0.1381
     28 H8         -5.4966    8.2368    0.0959 H         1 <0>         0.1371
     29 H9         -3.5488    6.7490    0.0701 H         1 <0>         0.1438
@<TRIPOS>BOND
     1    1    6 ar
     2    1    2 ar
     3    1   21 1
     4    2    3 ar
     5    2   22 1
     6    3    4 ar
     7    3    8 1
     8    4    5 ar
     9    4   23 1
    10    5    6 ar
    11    5    7 1
    12    6   24 1
    13    8   12 1
    14    8    9 2
    15    9   10 1
    16   10   11 2
    17   10   13 1
    18   11   12 1
    19   11   25 1
    20   13   18 ar
    21   13   14 ar
    22   14   15 ar
    23   14   26 1
    24   15   16 ar
    25   15   27 1
    26   16   17 ar
    27   16   19 1
    28   17   18 ar
    29   17   28 1
    30   18   29 1
    31   19   20 3
@<TRIPOS>MOLECULE
ZINC62793588
   27    28     0     0     0
SMALL
USER_CHARGES

@<TRIPOS>ATOM
      1 C1         -0.0168    1.3912    0.0097 C.ar      1 <0>        -0.0534
      2 C2          1.1695    2.0952    0.0021 C.ar      1 <0>        -0.1352
      3 C3          2.3789    1.4197   -0.0135 C.ar      1 <0>         0.1419
      4 C4          2.4040    0.0328   -0.0216 C.ar      1 <0>        -0.0803
      5 C5          1.2228   -0.6807   -0.0137 C.ar      1 <0>        -0.0325
      6 C6          0.0021   -0.0041    0.0020 C.ar      1 <0>        -0.0302
      7 C7         -1.2667   -0.7631    0.0105 C.2       1 <0>         0.1659
      8 N1         -1.4627   -2.0742    0.0109 N.2       1 <0>        -0.5067
      9 C8         -2.6730   -2.5821    0.0199 C.2       1 <0>         0.0404
     10 C9         -3.7536   -1.7576    0.0291 C.2       1 <0>        -0.1905
     11 S1         -2.9498   -0.1600    0.0311 S.3       1 <0>         0.0745
     12 C10        -2.8642   -4.0770    0.0196 C.3       1 <0>        -0.0698
     13 C11        -2.1171   -4.6864   -1.1684 C.3       1 <0>        -0.0035
     14 N2         -2.3035   -6.1435   -1.1688 N.4       1 <0>        -0.6374
     15 Cl1         3.9235   -0.8065   -0.0424 Cl        1 <0>        -0.0295
     16 F1          3.5377    2.1140   -0.0213 F         1 <0>        -0.1125
     17 H1         -0.9589    1.9191    0.0260 H         1 <0>         0.1464
     18 H2          1.1554    3.1751    0.0081 H         1 <0>         0.1609
     19 H3          1.2428   -1.7605   -0.0204 H         1 <0>         0.1537
     20 H4         -4.8060   -2.0001    0.0371 H         1 <0>         0.2052
     21 H5         -2.4725   -4.4936    0.9475 H         1 <0>         0.1028
     22 H6         -3.9264   -4.3074   -0.0622 H         1 <0>         0.1031
     23 H7         -2.5089   -4.2698   -2.0964 H         1 <0>         0.1333
     24 H8         -1.0549   -4.4560   -1.0866 H         1 <0>         0.1420
     25 H9         -1.8108   -6.5454   -1.9522 H         1 <0>         0.4402
     26 H10        -1.9409   -6.5292   -0.3098 H         1 <0>         0.4363
     27 H11        -3.2868   -6.3568   -1.2445 H         1 <0>         0.4347
@<TRIPOS>BOND
     1    1    6 ar
     2    1    2 ar
     3    1   17 1
     4    2    3 ar
     5    2   18 1
     6    3    4 ar
     7    3   16 1
     8    4    5 ar
     9    4   15 1
    10    5    6 ar
    11    5   19 1
    12    6    7 1
    13    7   11 1
    14    7    8 2
    15    8    9 1
    16    9   10 2
    17    9   12 1
    18   10   11 1
    19   10   20 1
    20   12   13 1
    21   12   21 1
    22   12   22 1
    23   13   14 1
    24   13   23 1
    25   13   24 1
    26   14   25 1
    27   14   26 1
    28   14   27 1
@<TRIPOS>MOLECULE
ZINC40419265
   36    37     0     0     0
SMALL
USER_CHARGES

@<TRIPOS>ATOM
      1 C1         -0.0187    1.5258    0.0104 C.3       1 <0>        -0.1475
      2 C2          0.0021   -0.0041    0.0020 C.3       1 <0>        -0.0657
      3 C3          0.7182   -0.4975   -1.2568 C.3       1 <0>        -0.1479
      4 C4          0.7309   -0.5033    1.2229 C.ar      1 <0>        -0.0349
      5 C5          2.0511   -0.1457    1.4311 C.ar      1 <0>        -0.1122
      6 C6          2.7240   -0.5990    2.5471 C.ar      1 <0>        -0.0788
      7 C7          2.0700   -1.4198    3.4668 C.ar      1 <0>        -0.0512
      8 C8          0.7383   -1.7768    3.2509 C.ar      1 <0>        -0.0577
      9 C9          0.0753   -1.3125    2.1336 C.ar      1 <0>        -0.1206
     10 C10         2.7852   -1.9097    4.6647 C.2       1 <0>         0.1908
     11 N1          2.3509   -2.6925    5.6424 N.2       1 <0>        -0.5125
     12 C11         3.1312   -3.0317    6.6413 C.2       1 <0>        -0.0089
     13 C12         4.4120   -2.5774    6.6851 C.2       1 <0>        -0.1864
     14 S1          4.4710   -1.6120    5.1807 S.3       1 <0>         0.0894
     15 C13         2.6086   -3.9228    7.7385 C.3       1 <0>         0.0769
     16 N2          1.9135   -3.1067    8.7429 N.4       1 <0>        -0.5084
     17 C14         1.4041   -3.9753    9.8124 C.3       1 <0>        -0.0468
     18 H1          1.0039    1.9031    0.0027 H         1 <0>         0.0590
     19 H2         -0.5459    1.8868   -0.8726 H         1 <0>         0.0654
     20 H3         -0.5289    1.8773    0.9072 H         1 <0>         0.0575
     21 H4         -1.0205   -0.3814    0.0098 H         1 <0>         0.0844
     22 H5          1.7408   -0.1202   -1.2645 H         1 <0>         0.0590
     23 H6          0.7330   -1.5874   -1.2628 H         1 <0>         0.0581
     24 H7          0.1910   -0.1364   -2.1398 H         1 <0>         0.0655
     25 H8          2.5562    0.4893    0.7183 H         1 <0>         0.1368
     26 H9          3.7546   -0.3195    2.7083 H         1 <0>         0.1283
     27 H10         0.2267   -2.4121    3.9588 H         1 <0>         0.1343
     28 H11        -0.9567   -1.5844    1.9676 H         1 <0>         0.1354
     29 H12         5.1816   -2.7540    7.4219 H         1 <0>         0.2096
     30 H13         1.9140   -4.6492    7.3167 H         1 <0>         0.1447
     31 H14         3.4409   -4.4465    8.2087 H         1 <0>         0.1455
     32 H15         2.5565   -2.4342    9.1334 H         1 <0>         0.4283
     33 H16         0.8883   -3.3698   10.5576 H         1 <0>         0.1276
     34 H17         0.7095   -4.7018    9.3906 H         1 <0>         0.1251
     35 H18         2.2364   -4.4990   10.2826 H         1 <0>         0.1250
     36 H19         1.1431   -2.6219    8.3077 H         1 <0>         0.4331
@<TRIPOS>BOND
     1    1    2 1
     2    1   18 1
     3    1   19 1
     4    1   20 1
     5    2    3 1
     6    2    4 1
     7    2   21 1
     8    3   22 1
     9    3   23 1
    10    3   24 1
    11    4    9 ar
    12    4    5 ar
    13    5    6 ar
    14    5   25 1
    15    6    7 ar
    16    6   26 1
    17    7    8 ar
    18    7   10 1
    19    8    9 ar
    20    8   27 1
    21    9   28 1
    22   10   14 1
    23   10   11 2
    24   11   12 1
    25   12   13 2
    26   12   15 1
    27   13   14 1
    28   13   29 1
    29   15   16 1
    30   15   30 1
    31   15   31 1
    32   16   17 1
    33   16   32 1
    34   16   36 1
    35   17   33 1
    36   17   34 1
    37   17   35 1
@<TRIPOS>MOLECULE
ZINC40419275
   33    34     0     0     0
SMALL
USER_CHARGES

@<TRIPOS>ATOM
      1 C1         -0.0187    1.5258    0.0104 C.3       1 <0>        -0.1489
      2 C2          0.0021   -0.0041    0.0020 C.3       1 <0>        -0.0963
      3 C3          0.7309   -0.5033    1.2229 C.ar      1 <0>        -0.0405
      4 C4          2.0982   -0.7086    1.1728 C.ar      1 <0>        -0.1151
      5 C5          2.7715   -1.1651    2.2872 C.ar      1 <0>        -0.0784
      6 C6          2.0704   -1.4197    3.4666 C.ar      1 <0>        -0.0515
      7 C7          0.6914   -1.2106    3.5105 C.ar      1 <0>        -0.0577
      8 C8          0.0308   -0.7488    2.3906 C.ar      1 <0>        -0.1207
      9 C9          2.7856   -1.9096    4.6645 C.2       1 <0>         0.1906
     10 N1          2.3088   -2.2125    5.8638 N.2       1 <0>        -0.5124
     11 C10         3.0969   -2.6384    6.8227 C.2       1 <0>        -0.0090
     12 C11         4.4299   -2.7757    6.5933 C.2       1 <0>        -0.1862
     13 S1          4.5252   -2.2603    4.8833 S.3       1 <0>         0.0895
     14 C12         2.5254   -2.9745    8.1760 C.3       1 <0>         0.0769
     15 N2          2.4338   -1.7524    8.9860 N.4       1 <0>        -0.5085
     16 C13         1.8767   -2.0800   10.3052 C.3       1 <0>        -0.0468
     17 H1          1.0039    1.9031    0.0027 H         1 <0>         0.0577
     18 H2         -0.5459    1.8868   -0.8726 H         1 <0>         0.0654
     19 H3         -0.5289    1.8773    0.9072 H         1 <0>         0.0570
     20 H4         -1.0205   -0.3814    0.0098 H         1 <0>         0.0797
     21 H5          0.5123   -0.3556   -0.8948 H         1 <0>         0.0802
     22 H6          2.6396   -0.5115    0.2593 H         1 <0>         0.1372
     23 H7          3.8388   -1.3253    2.2467 H         1 <0>         0.1286
     24 H8          0.1430   -1.4061    4.4201 H         1 <0>         0.1343
     25 H9         -1.0357   -0.5823    2.4246 H         1 <0>         0.1355
     26 H10         5.2136   -3.1077    7.2582 H         1 <0>         0.2096
     27 H11         1.5314   -3.4048    8.0540 H         1 <0>         0.1447
     28 H12         3.1739   -3.6940    8.6758 H         1 <0>         0.1455
     29 H13         3.3539   -1.3541    9.0990 H         1 <0>         0.4283
     30 H14         2.5253   -2.7995   10.8051 H         1 <0>         0.1250
     31 H15         1.8088   -1.1732   10.9063 H         1 <0>         0.1276
     32 H16         0.8827   -2.5103   10.1832 H         1 <0>         0.1251
     33 H17         1.8334   -1.0864    8.5234 H         1 <0>         0.4331
@<TRIPOS>BOND
     1    1    2 1
     2    1   17 1
     3    1   18 1
     4    1   19 1
     5    2    3 1
     6    2   20 1
     7    2   21 1
     8    3    8 ar
     9    3    4 ar
    10    4    5 ar
    11    4   22 1
    12    5    6 ar
    13    5   23 1
    14    6    7 ar
    15    6    9 1
    16    7    8 ar
    17    7   24 1
    18    8   25 1
    19    9   13 1
    20    9   10 2
    21   10   11 1
    22   11   12 2
    23   11   14 1
    24   12   13 1
    25   12   26 1
    26   14   15 1
    27   14   27 1
    28   14   28 1
    29   15   16 1
    30   15   29 1
    31   15   33 1
    32   16   30 1
    33   16   31 1
    34   16   32 1
@<TRIPOS>MOLECULE
ZINC20438875
   28    29     0     0     0
SMALL
USER_CHARGES
[2-(4-methoxyphenyl)thiazol-4-yl]methanamine
@<TRIPOS>ATOM
      1 C1         -5.5994   -3.0673    0.0399 C.3       1 <0>         0.0176
      2 O1         -4.2824   -3.6216    0.0245 O.3       1 <0>        -0.3064
      3 C2         -3.2444   -2.7452    0.0189 C.ar      1 <0>         0.1693
      4 C3         -1.9387   -3.2181    0.0040 C.ar      1 <0>        -0.1494
      5 C4         -0.8829   -2.3320   -0.0017 C.ar      1 <0>        -0.0406
      6 C5         -1.1273   -0.9577    0.0081 C.ar      1 <0>        -0.0878
      7 C6         -2.4411   -0.4863    0.0294 C.ar      1 <0>        -0.0174
      8 C7         -3.4917   -1.3787    0.0287 C.ar      1 <0>        -0.2141
      9 C8          0.0021   -0.0041    0.0020 C.2       1 <0>         0.1978
     10 N1         -0.0159    1.3216    0.0093 N.2       1 <0>        -0.5181
     11 C9          1.0970    2.0180    0.0024 C.2       1 <0>        -0.0058
     12 C10         2.2961    1.3787   -0.0125 C.2       1 <0>        -0.1914
     13 S1          1.7604   -0.3277   -0.0165 S.3       1 <0>         0.0813
     14 C11         1.0448    3.5241    0.0105 C.3       1 <0>         0.0842
     15 N2          0.8938    4.0162   -1.3653 N.4       1 <0>        -0.6836
     16 H1         -6.3396   -3.8810    0.0430 H         1 <0>         0.1112
     17 H2         -5.7448   -2.4427   -0.8538 H         1 <0>         0.0626
     18 H3         -5.7275   -2.4516    0.9424 H         1 <0>         0.0630
     19 H4         -1.7504   -4.2815   -0.0036 H         1 <0>         0.1470
     20 H5          0.1323   -2.7006   -0.0133 H         1 <0>         0.1360
     21 H6         -2.6342    0.5762    0.0419 H         1 <0>         0.1376
     22 H7         -4.5085   -1.0147    0.0403 H         1 <0>         0.1420
     23 H8          3.2956    1.7877   -0.0198 H         1 <0>         0.2077
     24 H9          0.1889    3.8581    0.6154 H         1 <0>         0.1411
     25 H10         1.9757    3.9210    0.4418 H         1 <0>         0.1420
     26 H11         0.8557    5.1155   -1.3594 H         1 <0>         0.4609
     27 H12        -0.0371    3.6193   -1.7965 H         1 <0>         0.4594
     28 H13         1.7497    3.6822   -1.9702 H         1 <0>         0.4539
@<TRIPOS>BOND
     1    1    2 1
     2    1   16 1
     3    1   17 1
     4    1   18 1
     5    2    3 1
     6    3    8 ar
     7    3    4 ar
     8    4    5 ar
     9    4   19 1
    10    5    6 ar
    11    5   20 1
    12    6    7 ar
    13    6    9 1
    14    7    8 ar
    15    7   21 1
    16    8   22 1
    17    9   13 1
    18    9   10 2
    19   10   11 1
    20   11   12 2
    21   11   14 1
    22   12   13 1
    23   12   23 1
    24   14   15 1
    25   14   24 1
    26   14   25 1
    27   15   26 1
    28   15   27 1
    29   15   28 1
@<TRIPOS>MOLECULE
ZINC37974077
   20    21     0     0     0
SMALL
USER_CHARGES

@<TRIPOS>ATOM
      1 C1         -0.0168    1.3909    0.0097 C.ar      1 <0>        -0.0801
      2 C2          1.1698    2.0949    0.0021 C.ar      1 <0>        -0.0931
      3 C3          2.3782    1.4199   -0.0130 C.ar      1 <0>        -0.0175
      4 C4          2.4038    0.0341   -0.0207 C.ar      1 <0>        -0.0311
      5 C5          1.2227   -0.6801   -0.0133 C.ar      1 <0>        -0.0538
      6 C6          0.0021   -0.0041    0.0020 C.ar      1 <0>         0.0038
      7 C7         -1.2670   -0.7636    0.0105 C.2       1 <0>         0.0950
      8 N1         -1.4523   -2.0696    0.0108 N.2       1 <0>        -0.4289
      9 C8         -2.6959   -2.5353    0.0201 C.2       1 <0>        -0.0570
     10 C9         -3.7428   -1.6301    0.0292 C.2       1 <0>        -0.2152
     11 S1         -2.9418   -0.1499    0.0311 S.3       1 <0>         0.1881
     12 C10        -2.9542   -3.9771    0.0203 C.2       1 <0>         0.4013
     13 O1         -2.0267   -4.7597    0.0124 O.2       1 <0>        -0.4333
     14 Cl1         3.9237   -0.8045   -0.0403 Cl        1 <0>        -0.0340
     15 Cl2         3.8672    2.3124   -0.0230 Cl        1 <0>        -0.0363
     16 H1         -0.9588    1.9190    0.0260 H         1 <0>         0.1443
     17 H2          1.1558    3.1748    0.0077 H         1 <0>         0.1542
     18 H3          1.2432   -1.7599   -0.0196 H         1 <0>         0.1565
     19 H4         -4.8051   -1.8245    0.0373 H         1 <0>         0.2135
     20 H5         -3.9700   -4.3437    0.0276 H         1 <0>         0.1236
@<TRIPOS>BOND
     1    1    6 ar
     2    1    2 ar
     3    1   16 1
     4    2    3 ar
     5    2   17 1
     6    3    4 ar
     7    3   15 1
     8    4    5 ar
     9    4   14 1
    10    5    6 ar
    11    5   18 1
    12    6    7 1
    13    7   11 1
    14    7    8 2
    15    8    9 1
    16    9   10 2
    17    9   12 1
    18   10   11 1
    19   10   19 1
    20   12   13 2
    21   12   20 1
@<TRIPOS>MOLECULE
ZINC41009974
   37    39     0     0     0
SMALL
USER_CHARGES

@<TRIPOS>ATOM
      1 C1         -0.0178    1.4648    0.0101 C.3       1 <0>        -0.0468
      2 N1          0.0021   -0.0041    0.0020 N.4       1 <0>        -0.5085
      3 C2          0.6897   -0.4778   -1.2066 C.3       1 <0>         0.0768
      4 C3          0.7101   -1.9847   -1.2149 C.2       1 <0>        -0.0089
      5 C4         -0.2482   -2.6751   -1.8888 C.2       1 <0>        -0.1860
      6 S1          0.2635   -4.3568   -1.5594 S.3       1 <0>         0.0909
      7 C5          1.6937   -3.9580   -0.5631 C.2       1 <0>         0.1889
      8 N2          1.6556   -2.6325   -0.5764 N.2       1 <0>        -0.5116
      9 C6          2.6609   -4.8618    0.0933 C.ar      1 <0>        -0.0492
     10 C7          3.7163   -4.3328    0.8397 C.ar      1 <0>        -0.0553
     11 C8          4.6167   -5.1758    1.4514 C.ar      1 <0>        -0.1175
     12 C9          4.4753   -6.5579    1.3258 C.ar      1 <0>         0.0029
     13 C10         3.4219   -7.0871    0.5802 C.ar      1 <0>        -0.1120
     14 C11         2.5171   -6.2458   -0.0274 C.ar      1 <0>        -0.0759
     15 C12         5.4456   -7.4649    1.9850 C.ar      1 <0>        -0.0695
     16 C13         6.4964   -6.9394    2.7352 C.ar      1 <0>        -0.1019
     17 C14         7.3962   -7.7884    3.3468 C.ar      1 <0>        -0.1182
     18 C15         7.2571   -9.1585    3.2161 C.ar      1 <0>        -0.1049
     19 C16         6.2163   -9.6857    2.4729 C.ar      1 <0>        -0.1176
     20 C17         5.3072   -8.8465    1.8615 C.ar      1 <0>        -0.1016
     21 H1          1.0047    1.8421    0.0024 H         1 <0>         0.1251
     22 H2         -0.5450    1.8259   -0.8730 H         1 <0>         0.1250
     23 H3         -0.5280    1.8163    0.9069 H         1 <0>         0.1276
     24 H4          0.4901   -0.3383    0.8195 H         1 <0>         0.4332
     25 H5          0.1625   -0.1167   -2.0897 H         1 <0>         0.1455
     26 H6          1.7123   -0.1005   -1.2143 H         1 <0>         0.1448
     27 H7         -1.0864   -2.3092   -2.4632 H         1 <0>         0.2096
     28 H8          3.8261   -3.2628    0.9368 H         1 <0>         0.1367
     29 H9          5.4330   -4.7670    2.0283 H         1 <0>         0.1388
     30 H10         3.3134   -8.1573    0.4833 H         1 <0>         0.1403
     31 H11         1.6987   -6.6559   -0.6007 H         1 <0>         0.1309
     32 H12         6.6063   -5.8699    2.8374 H         1 <0>         0.1267
     33 H13         8.2106   -7.3824    3.9283 H         1 <0>         0.1287
     34 H14         7.9640   -9.8191    3.6959 H         1 <0>         0.1280
     35 H15         6.1126  -10.7562    2.3742 H         1 <0>         0.1292
     36 H16         4.4924   -9.2592    1.2852 H         1 <0>         0.1274
     37 H17        -0.9445   -0.3533    0.0092 H         1 <0>         0.4284
@<TRIPOS>BOND
     1    1    2 1
     2    1   21 1
     3    1   22 1
     4    1   23 1
     5    2    3 1
     6    2   24 1
     7    2   37 1
     8    3    4 1
     9    3   25 1
    10    3   26 1
    11    4    8 1
    12    4    5 2
    13    5    6 1
    14    5   27 1
    15    6    7 1
    16    7    8 2
    17    7    9 1
    18    9   14 ar
    19    9   10 ar
    20   10   11 ar
    21   10   28 1
    22   11   12 ar
    23   11   29 1
    24   12   13 ar
    25   12   15 1
    26   13   14 ar
    27   13   30 1
    28   14   31 1
    29   15   20 ar
    30   15   16 ar
    31   16   17 ar
    32   16   32 1
    33   17   18 ar
    34   17   33 1
    35   18   19 ar
    36   18   34 1
    37   19   20 ar
    38   19   35 1
    39   20   36 1
@<TRIPOS>MOLECULE
ZINC42390684
   23    24     0     0     0
SMALL
USER_CHARGES

@<TRIPOS>ATOM
      1 C1         -0.0167    1.3793    0.0096 C.ar      1 <0>        -0.0973
      2 C2          1.1684    2.0932    0.0021 C.ar      1 <0>        -0.1175
      3 C3          2.3774    1.4288   -0.0130 C.ar      1 <0>        -0.0904
      4 C4          2.4033    0.0336   -0.0208 C.ar      1 <0>        -0.0218
      5 C5          1.2044   -0.6806   -0.0131 C.ar      1 <0>        -0.0698
      6 C6          0.0021   -0.0041    0.0020 C.ar      1 <0>        -0.1201
      7 C7          3.6955   -0.6850   -0.0375 C.2       1 <0>         0.1613
      8 N1          3.9328   -1.9891   -0.0523 N.2       1 <0>        -0.4981
      9 C8          5.1581   -2.4586   -0.0660 C.2       1 <0>         0.0471
     10 C9          6.2126   -1.6003   -0.0651 C.2       1 <0>        -0.1683
     11 S1          5.3587   -0.0288   -0.0511 S.3       1 <0>         0.0291
     12 C10         5.3961   -3.9466   -0.0821 C.3       1 <0>         0.1496
     13 N2          5.3641   -4.4611    1.2892 N.2       1 <0>        -0.4003
     14 N3          4.6074   -5.2398    1.5797 N.1       1 <0>         0.3019
     15 N4          3.8668   -6.0018    1.8641 N.1       1 <0>        -0.1690
     16 H1         -0.9605    1.9041    0.0260 H         1 <0>         0.1301
     17 H2          1.1469    3.1730    0.0078 H         1 <0>         0.1329
     18 H3          3.3018    1.9873   -0.0192 H         1 <0>         0.1277
     19 H4          1.2177   -1.7605   -0.0194 H         1 <0>         0.1337
     20 H5         -0.9265   -0.5556    0.0083 H         1 <0>         0.1322
     21 H6          7.2721   -1.8094   -0.0745 H         1 <0>         0.2064
     22 H7          4.6181   -4.4326   -0.6708 H         1 <0>         0.0801
     23 H8          6.3701   -4.1540   -0.5254 H         1 <0>         0.1207
@<TRIPOS>BOND
     1    1    6 ar
     2    1    2 ar
     3    1   16 1
     4    2    3 ar
     5    2   17 1
     6    3    4 ar
     7    3   18 1
     8    4    5 ar
     9    4    7 1
    10    5    6 ar
    11    5   19 1
    12    6   20 1
    13    7   11 1
    14    7    8 2
    15    8    9 1
    16    9   10 2
    17    9   12 1
    18   10   11 1
    19   10   21 1
    20   12   13 1
    21   12   22 1
    22   12   23 1
    23   13   14 2
    24   14   15 2
@<TRIPOS>MOLECULE
ZINC41009963
   39    40     0     0     0
SMALL
USER_CHARGES

@<TRIPOS>ATOM
      1 C1         -0.0187    1.5258    0.0104 C.3       1 <0>        -0.1413
      2 C2          0.0021   -0.0041    0.0020 C.3       1 <0>        -0.0373
      3 C3          0.7421   -0.5109    1.2415 C.3       1 <0>        -0.1418
      4 C4         -1.4333   -0.5336    0.0129 C.3       1 <0>        -0.1499
      5 C5          0.7074   -0.4901   -1.2379 C.ar      1 <0>        -0.0286
      6 C6          0.0327   -1.2848   -2.1474 C.ar      1 <0>        -0.1187
      7 C7          0.6726   -1.7327   -3.2847 C.ar      1 <0>        -0.0785
      8 C8          2.0033   -1.3824   -3.5166 C.ar      1 <0>        -0.0516
      9 C9          2.6782   -0.5805   -2.5953 C.ar      1 <0>        -0.0582
     10 C10         2.0252   -0.1349   -1.4645 C.ar      1 <0>        -0.1183
     11 C11         2.6954   -1.8592   -4.7332 C.2       1 <0>         0.1915
     12 N1          3.9420   -1.6458   -5.1302 N.2       1 <0>        -0.5126
     13 C12         4.3959   -2.1524   -6.2524 C.2       1 <0>        -0.0089
     14 C13         3.5809   -2.9125   -7.0312 C.2       1 <0>        -0.1865
     15 S1          2.0786   -2.8855   -6.0611 S.3       1 <0>         0.0887
     16 C14         5.8180   -1.8916   -6.6775 C.3       1 <0>         0.0769
     17 N2          5.8884   -0.6098   -7.3917 N.4       1 <0>        -0.5085
     18 C15         7.2747   -0.3557   -7.8060 C.3       1 <0>        -0.0468
     19 H1          1.0039    1.9031    0.0027 H         1 <0>         0.0585
     20 H2         -0.5459    1.8868   -0.8726 H         1 <0>         0.0583
     21 H3         -0.5289    1.8773    0.9072 H         1 <0>         0.0657
     22 H4          0.2319   -0.1594    2.1383 H         1 <0>         0.0657
     23 H5          0.7568   -1.6008    1.2356 H         1 <0>         0.0588
     24 H6          1.7647   -0.1336    1.2338 H         1 <0>         0.0587
     25 H7         -1.9605   -0.1726   -0.8702 H         1 <0>         0.0610
     26 H8         -1.4185   -1.6235    0.0069 H         1 <0>         0.0612
     27 H9         -1.9435   -0.1821    0.9097 H         1 <0>         0.0654
     28 H10        -0.9971   -1.5555   -1.9665 H         1 <0>         0.1418
     29 H11         0.1448   -2.3533   -3.9937 H         1 <0>         0.1281
     30 H12         3.7083   -0.3062   -2.7689 H         1 <0>         0.1338
     31 H13         2.5451    0.4895   -0.7529 H         1 <0>         0.1348
     32 H14         3.7852   -3.4006   -7.9726 H         1 <0>         0.2094
     33 H15         6.4591   -1.8526   -5.7969 H         1 <0>         0.1446
     34 H16         6.1532   -2.6932   -7.3357 H         1 <0>         0.1454
     35 H17         5.2950   -0.6460   -8.2069 H         1 <0>         0.4283
     36 H18         7.3269    0.5954   -8.3359 H         1 <0>         0.1275
     37 H19         7.9158   -0.3167   -6.9254 H         1 <0>         0.1251
     38 H20         7.6099   -1.1572   -8.4643 H         1 <0>         0.1250
     39 H21         5.5781    0.1321   -6.7823 H         1 <0>         0.4331
@<TRIPOS>BOND
     1    1    2 1
     2    1   19 1
     3    1   20 1
     4    1   21 1
     5    2    3 1
     6    2    4 1
     7    2    5 1
     8    3   22 1
     9    3   23 1
    10    3   24 1
    11    4   25 1
    12    4   26 1
    13    4   27 1
    14    5   10 ar
    15    5    6 ar
    16    6    7 ar
    17    6   28 1
    18    7    8 ar
    19    7   29 1
    20    8    9 ar
    21    8   11 1
    22    9   10 ar
    23    9   30 1
    24   10   31 1
    25   11   15 1
    26   11   12 2
    27   12   13 1
    28   13   14 2
    29   13   16 1
    30   14   15 1
    31   14   32 1
    32   16   17 1
    33   16   33 1
    34   16   34 1
    35   17   18 1
    36   17   35 1
    37   17   39 1
    38   18   36 1
    39   18   37 1
    40   18   38 1
@<TRIPOS>MOLECULE
ZINC11568387
   30    31     0     0     0
SMALL
USER_CHARGES
(1S)-1-[2-(p-tolyl)thiazol-4-yl]ethanamine
@<TRIPOS>ATOM
      1 C1         -1.5124    2.7909  -10.0581 C.3       1 <0>        -0.1281
      2 C2         -1.1261    2.3906   -8.6575 C.ar      1 <0>        -0.0423
      3 C3         -0.0342    1.5659   -8.4533 C.ar      1 <0>        -0.1194
      4 C4          0.3244    1.1954   -7.1736 C.ar      1 <0>        -0.0761
      5 C5         -0.4169    1.6544   -6.0840 C.ar      1 <0>        -0.0562
      6 C6         -1.5205    2.4812   -6.2972 C.ar      1 <0>        -0.0534
      7 C7         -1.8652    2.8490   -7.5815 C.ar      1 <0>        -0.1241
      8 C8         -0.0381    1.2612   -4.7098 C.2       1 <0>         0.2039
      9 N1         -0.6042    1.5853   -3.5558 N.2       1 <0>        -0.5053
     10 C9         -0.1304    1.1406   -2.4157 C.2       1 <0>         0.0439
     11 C10         0.9650    0.3353   -2.4053 C.2       1 <0>        -0.2628
     12 S1          1.3065    0.2203   -4.1571 S.3       1 <0>         0.0954
     13 C11        -0.7955    1.5269   -1.1198 C.3       1 <0>         0.1133
     14 H1         -1.8010    1.1074   -1.0883 H         1 <0>         0.1554
     15 C12        -0.8757    3.0517   -1.0224 C.3       1 <0>        -0.1754
     16 H2         -2.2155    2.0631  -10.4631 H         1 <0>         0.0819
     17 H3         -1.9795    3.7755  -10.0388 H         1 <0>         0.0750
     18 H4         -0.6216    2.8236  -10.6854 H         1 <0>         0.0751
     19 H5          0.5389    1.2117   -9.2974 H         1 <0>         0.1380
     20 H6          1.1768    0.5513   -7.0155 H         1 <0>         0.1285
     21 H7         -2.1012    2.8358   -5.4585 H         1 <0>         0.1365
     22 H8         -2.7165    3.4926   -7.7476 H         1 <0>         0.1371
     23 H9          1.4843   -0.1120   -1.5706 H         1 <0>         0.1971
     24 H10         0.1298    3.4712   -1.0539 H         1 <0>         0.0803
     25 H11        -1.4574    3.4391   -1.8590 H         1 <0>         0.1144
     26 H12        -1.3568    3.3311   -0.0851 H         1 <0>         0.0875
     27 H13         0.0021   -0.0041    0.0020 H         1 <0>         0.4389
     28 H14         0.9253    1.3792    0.0006 H         1 <0>         0.4366
     29 N2         -0.0252    1.0139    0.0269 N.4       1 <0>        -0.6436
     30 H15        -0.4761    1.3157    0.8986 H         1 <0>         0.4479
@<TRIPOS>BOND
     1    1    2 1
     2    1   16 1
     3    1   17 1
     4    1   18 1
     5    2    7 ar
     6    2    3 ar
     7    3    4 ar
     8    3   19 1
     9    4    5 ar
    10    4   20 1
    11    5    6 ar
    12    5    8 1
    13    6    7 ar
    14    6   21 1
    15    7   22 1
    16    8   12 1
    17    8    9 2
    18    9   10 1
    19   10   11 2
    20   10   13 1
    21   11   12 1
    22   11   23 1
    23   13   14 1
    24   13   15 1
    25   13   29 1
    26   15   24 1
    27   15   25 1
    28   15   26 1
    29   27   29 1
    30   28   29 1
    31   29   30 1
@<TRIPOS>MOLECULE
ZINC11568386
   30    31     0     0     0
SMALL
USER_CHARGES
(1R)-1-[2-(p-tolyl)thiazol-4-yl]ethanamine
@<TRIPOS>ATOM
      1 C1          2.4523    3.9331    0.0008 C.3       1 <0>        -0.1282
      2 C2          1.1548    3.1667    0.0085 C.ar      1 <0>        -0.0442
      3 C3          1.1718    1.7833    0.0004 C.ar      1 <0>        -0.1178
      4 C4         -0.0126    1.0758    0.0080 C.ar      1 <0>        -0.0776
      5 C5         -1.2296    1.7586    0.0174 C.ar      1 <0>        -0.0522
      6 C6         -1.2398    3.1540    0.0300 C.ar      1 <0>        -0.0580
      7 C7         -0.0484    3.8496    0.0233 C.ar      1 <0>        -0.1240
      8 C8         -2.5028    1.0067    0.0193 C.2       1 <0>         0.1899
      9 N1         -3.7481    1.4609    0.0331 N.2       1 <0>        -0.5175
     10 C9         -4.7726    0.6409    0.0285 C.2       1 <0>        -0.0069
     11 C10        -4.5648   -0.7027    0.0205 C.2       1 <0>        -0.1807
     12 S1         -2.7773   -0.7601    0.0115 S.3       1 <0>         0.0904
     13 C11        -6.1769    1.1875    0.0382 C.3       1 <0>         0.1213
     14 H1         -6.8864    0.3648    0.1270 H         1 <0>         0.1506
     15 C12        -6.3463    2.1374    1.2255 C.3       1 <0>        -0.1747
     16 H2          2.7555    4.1237   -1.0287 H         1 <0>         0.0816
     17 H3          2.3175    4.8812    0.5213 H         1 <0>         0.0748
     18 H4          3.2225    3.3486    0.5041 H         1 <0>         0.0753
     19 H5          2.1144    1.2562   -0.0114 H         1 <0>         0.1378
     20 H6          0.0021   -0.0041    0.0020 H         1 <0>         0.1288
     21 H7         -2.1783    3.6882    0.0408 H         1 <0>         0.1334
     22 H8         -0.0549    4.9296    0.0292 H         1 <0>         0.1359
     23 H9         -5.2808   -1.5113    0.0202 H         1 <0>         0.2096
     24 H10        -6.1607    1.5961    2.1533 H         1 <0>         0.1032
     25 H11        -5.6368    2.9601    1.1368 H         1 <0>         0.0893
     26 H12        -7.3620    2.5327    1.2325 H         1 <0>         0.0856
     27 H13        -7.3630    2.2936   -1.2300 H         1 <0>         0.4388
     28 H14        -5.7418    2.6448   -1.3494 H         1 <0>         0.4398
     29 N2         -6.4242    1.8982   -1.2288 N.4       1 <0>        -0.6429
     30 H15        -6.3383    1.2365   -2.0092 H         1 <0>         0.4386
@<TRIPOS>BOND
     1    1    2 1
     2    1   16 1
     3    1   17 1
     4    1   18 1
     5    2    7 ar
     6    2    3 ar
     7    3    4 ar
     8    3   19 1
     9    4    5 ar
    10    4   20 1
    11    5    6 ar
    12    5    8 1
    13    6    7 ar
    14    6   21 1
    15    7   22 1
    16    8   12 1
    17    8    9 2
    18    9   10 1
    19   10   11 2
    20   10   13 1
    21   11   12 1
    22   11   23 1
    23   13   14 1
    24   13   15 1
    25   13   29 1
    26   15   24 1
    27   15   25 1
    28   15   26 1
    29   27   29 1
    30   28   29 1
    31   29   30 1
@<TRIPOS>MOLECULE
ZINC43315081
   30    31     0     0     0
SMALL
USER_CHARGES

@<TRIPOS>ATOM
      1 C1         -0.0137    1.5024    0.0454 C.3       1 <0>        -0.1212
      2 C2          0.0048   -0.0042    0.0188 C.ar      1 <0>        -0.0845
      3 C3         -0.1301   -0.6752   -1.1838 C.ar      1 <0>        -0.0829
      4 C4         -0.1141   -2.0580   -1.2168 C.ar      1 <0>        -0.1154
      5 C5          0.0367   -2.7773   -0.0490 C.ar      1 <0>        -0.0842
      6 C6          0.1737   -2.1068    1.1670 C.ar      1 <0>        -0.0426
      7 C7          0.1620   -0.7114    1.1927 C.ar      1 <0>        -0.0373
      8 C8          0.3151    0.0211    2.5008 C.3       1 <0>        -0.1126
      9 C9          0.3352   -2.8713    2.4224 C.2       1 <0>         0.1917
     10 N1         -0.2773   -2.7146    3.5875 N.2       1 <0>        -0.4998
     11 C10        -0.0085   -3.4935    4.6088 C.2       1 <0>        -0.0182
     12 C11         0.9144   -4.4837    4.4812 C.2       1 <0>        -0.1822
     13 S1          1.4035   -4.2610    2.7754 S.3       1 <0>         0.0922
     14 C12        -0.7211   -3.2904    5.9210 C.3       1 <0>         0.0796
     15 N2         -0.0236   -2.2608    6.7028 N.4       1 <0>        -0.6351
     16 H1          1.0014    1.8805   -0.0758 H         1 <0>         0.0772
     17 H2         -0.6387    1.8725   -0.7674 H         1 <0>         0.0746
     18 H3         -0.4173    1.8440    0.9985 H         1 <0>         0.0711
     19 H4         -0.2488   -0.1168   -2.1007 H         1 <0>         0.1353
     20 H5         -0.2202   -2.5758   -2.1587 H         1 <0>         0.1378
     21 H6          0.0484   -3.8569   -0.0760 H         1 <0>         0.1296
     22 H7         -0.6694    0.2087    2.9295 H         1 <0>         0.0787
     23 H8          0.9020   -0.5856    3.1904 H         1 <0>         0.0569
     24 H9          0.8232    0.9699    2.3287 H         1 <0>         0.0752
     25 H10         1.2547   -5.2070    5.2074 H         1 <0>         0.2097
     26 H11        -1.7460   -2.9711    5.7323 H         1 <0>         0.1471
     27 H12        -0.7291   -4.2268    6.4788 H         1 <0>         0.1480
     28 H13        -0.0161   -1.3939    6.1865 H         1 <0>         0.4376
     29 H14        -0.5007   -2.1248    7.5814 H         1 <0>         0.4404
     30 H15         0.9252   -2.5563    6.8776 H         1 <0>         0.4337
@<TRIPOS>BOND
     1    1    2 1
     2    1   16 1
     3    1   17 1
     4    1   18 1
     5    2    7 ar
     6    2    3 ar
     7    3    4 ar
     8    3   19 1
     9    4    5 ar
    10    4   20 1
    11    5    6 ar
    12    5   21 1
    13    6    7 ar
    14    6    9 1
    15    7    8 1
    16    8   22 1
    17    8   23 1
    18    8   24 1
    19    9   13 1
    20    9   10 2
    21   10   11 1
    22   11   12 2
    23   11   14 1
    24   12   13 1
    25   12   25 1
    26   14   15 1
    27   14   26 1
    28   14   27 1
    29   15   28 1
    30   15   29 1
    31   15   30 1
@<TRIPOS>MOLECULE
ZINC11568380
   23    24     0     0     0
SMALL
USER_CHARGES
[2-(4-pyridyl)thiazol-4-yl]methanamine
@<TRIPOS>ATOM
      1 C1         -2.4826    1.7549    0.0181 C.ar      1 <0>        -0.1226
      2 C2         -3.5307    2.6514    0.0331 C.ar      1 <0>         0.1093
      3 N1         -3.3097    3.9522    0.0391 N.ar      1 <0>        -0.4621
      4 C3         -2.0900    4.4553    0.0362 C.ar      1 <0>         0.1142
      5 C4         -0.9839    3.6313    0.0267 C.ar      1 <0>        -0.1432
      6 C5         -1.1712    2.2441    0.0201 C.ar      1 <0>         0.0080
      7 C6         -0.0159    1.3214    0.0093 C.2       1 <0>         0.1687
      8 N2          0.0021   -0.0041    0.0020 N.2       1 <0>        -0.4973
      9 C7          1.1313   -0.6702   -0.0123 C.2       1 <0>        -0.0162
     10 C8          2.3145    0.0017   -0.0200 C.2       1 <0>        -0.1774
     11 S1          1.7330    1.6930   -0.0054 S.3       1 <0>         0.1167
     12 C9          1.1188   -2.1771   -0.0198 C.3       1 <0>         0.0839
     13 H1         -2.6710    0.6914    0.0089 H         1 <0>         0.1473
     14 H2         -4.5462    2.2837    0.0362 H         1 <0>         0.1700
     15 H3         -1.9558    5.5269    0.0410 H         1 <0>         0.1716
     16 H4          0.0117    4.0500    0.0247 H         1 <0>         0.1421
     17 H5          3.3246   -0.3803   -0.0314 H         1 <0>         0.2135
     18 H6          0.2685   -2.5305   -0.6032 H         1 <0>         0.1489
     19 H7          2.0430   -2.5460   -0.4646 H         1 <0>         0.1475
     20 H8          0.1908   -2.2927    1.8143 H         1 <0>         0.4402
     21 H9          0.9964   -3.6814    1.3804 H         1 <0>         0.4431
     22 N3          1.0283   -2.6633    1.3683 N.4       1 <0>        -0.6440
     23 H10         1.8538   -2.3477    1.8909 H         1 <0>         0.4379
@<TRIPOS>BOND
     1    1    6 ar
     2    1    2 ar
     3    1   13 1
     4    2    3 ar
     5    2   14 1
     6    3    4 ar
     7    4    5 ar
     8    4   15 1
     9    5    6 ar
    10    5   16 1
    11    6    7 1
    12    7   11 1
    13    7    8 2
    14    8    9 1
    15    9   10 2
    16    9   12 1
    17   10   11 1
    18   10   17 1
    19   12   18 1
    20   12   19 1
    21   12   22 1
    22   20   22 1
    23   21   22 1
    24   22   23 1
@<TRIPOS>MOLECULE
ZINC83351886
   27    28     0     0     0
SMALL
USER_CHARGES

@<TRIPOS>ATOM
      1 C1         -0.3020    1.4846    0.0459 C.3       1 <0>        -0.1154
      2 C2         -0.1341   -0.0128    0.0191 C.ar      1 <0>        -0.0007
      3 C3         -0.2339   -0.6980   -1.1739 C.ar      1 <0>        -0.1579
      4 C4         -0.0797   -2.0748   -1.1999 C.ar      1 <0>         0.1433
      5 C5          0.1753   -2.7708   -0.0287 C.ar      1 <0>        -0.1582
      6 C6          0.2766   -2.0956    1.1694 C.ar      1 <0>        -0.0471
      7 C7          0.1283   -0.7080    1.2003 C.ar      1 <0>        -0.0610
      8 C8          0.2424    0.0219    2.4810 C.2       1 <0>         0.1875
      9 N1          0.9157    1.1289    2.7614 N.2       1 <0>        -0.4980
     10 C9          0.9052    1.6455    3.9680 C.2       1 <0>        -0.0185
     11 C10         0.1938    1.0426    4.9569 C.2       1 <0>        -0.1794
     12 S1         -0.4971   -0.3463    4.0667 S.3       1 <0>         0.0972
     13 C11         1.6810    2.9048    4.2565 C.3       1 <0>         0.0796
     14 N2          3.0747    2.5608    4.5685 N.4       1 <0>        -0.6352
     15 F1         -0.1789   -2.7412   -2.3709 F         1 <0>        -0.1241
     16 H1          0.6769    1.9610   -0.0075 H         1 <0>         0.0846
     17 H2         -0.9056    1.7978   -0.8059 H         1 <0>         0.0772
     18 H3         -0.7989    1.7780    0.9707 H         1 <0>         0.0666
     19 H4         -0.4329   -0.1604   -2.0892 H         1 <0>         0.1499
     20 H5          0.2947   -3.8439   -0.0545 H         1 <0>         0.1508
     21 H6          0.4750   -2.6389    2.0814 H         1 <0>         0.1407
     22 H7          0.0755    1.3258    5.9924 H         1 <0>         0.2104
     23 H8          1.6544    3.5562    3.3829 H         1 <0>         0.1471
     24 H9          1.2347    3.4197    5.1073 H         1 <0>         0.1480
     25 H10         3.0993    1.9578    5.3772 H         1 <0>         0.4337
     26 H11         3.4878    2.0842    3.7810 H         1 <0>         0.4386
     27 H12         3.5941    3.4039    4.7617 H         1 <0>         0.4404
@<TRIPOS>BOND
     1    1    2 1
     2    1   16 1
     3    1   17 1
     4    1   18 1
     5    2    7 ar
     6    2    3 ar
     7    3    4 ar
     8    3   19 1
     9    4    5 ar
    10    4   15 1
    11    5    6 ar
    12    5   20 1
    13    6    7 ar
    14    6   21 1
    15    7    8 1
    16    8   12 1
    17    8    9 2
    18    9   10 1
    19   10   11 2
    20   10   13 1
    21   11   12 1
    22   11   22 1
    23   13   14 1
    24   13   23 1
    25   13   24 1
    26   14   25 1
    27   14   26 1
    28   14   27 1
@<TRIPOS>MOLECULE
ZINC40415674
   33    34     0     0     0
SMALL
USER_CHARGES

@<TRIPOS>ATOM
      1 C1         -0.0187    1.5258    0.0104 C.3       1 <0>        -0.1565
      2 C2          0.0021   -0.0041    0.0020 C.3       1 <0>        -0.1515
      3 C3         -1.4333   -0.5336    0.0129 C.3       1 <0>        -0.0103
      4 N1         -1.4134   -2.0025    0.0048 N.4       1 <0>        -0.5085
      5 C4         -2.7915   -2.5110    0.0152 C.3       1 <0>         0.0780
      6 C5         -2.7711   -4.0178    0.0069 C.2       1 <0>        -0.0095
      7 C6         -2.8584   -4.7063    1.1759 C.2       1 <0>        -0.1807
      8 S1         -2.7874   -6.3889    0.5738 S.3       1 <0>         0.0997
      9 C7         -2.6497   -5.9926   -1.1643 C.2       1 <0>         0.1805
     10 N2         -2.6745   -4.6676   -1.1292 N.2       1 <0>        -0.5058
     11 C8         -2.5425   -6.8987   -2.3278 C.ar      1 <0>        -0.0385
     12 C9         -2.4369   -6.3741   -3.6167 C.ar      1 <0>        -0.0507
     13 C10        -2.3367   -7.2244   -4.6983 C.ar      1 <0>        -0.1113
     14 C11        -2.3412   -8.5958   -4.5070 C.ar      1 <0>        -0.0059
     15 C12        -2.4462   -9.1221   -3.2305 C.ar      1 <0>        -0.1060
     16 C13        -2.5407   -8.2816   -2.1408 C.ar      1 <0>        -0.0711
     17 Cl1        -2.2154   -9.6597   -5.8731 Cl        1 <0>        -0.0433
     18 H1          1.0039    1.9031    0.0027 H         1 <0>         0.0777
     19 H2         -0.5459    1.8868   -0.8726 H         1 <0>         0.0677
     20 H3         -0.5289    1.8773    0.9072 H         1 <0>         0.0675
     21 H4          0.5123   -0.3556   -0.8948 H         1 <0>         0.0864
     22 H5          0.5293   -0.3651    0.8851 H         1 <0>         0.0861
     23 H6         -1.9435   -0.1821    0.9097 H         1 <0>         0.1332
     24 H7         -1.9605   -0.1726   -0.8702 H         1 <0>         0.1333
     25 H8         -0.9411   -2.3279   -0.8254 H         1 <0>         0.4311
     26 H9         -3.3017   -2.1594    0.9120 H         1 <0>         0.1461
     27 H10        -3.3187   -2.1499   -0.8678 H         1 <0>         0.1453
     28 H11        -2.9459   -4.3390    2.1877 H         1 <0>         0.2111
     29 H12        -2.4339   -5.3047   -3.7671 H         1 <0>         0.1444
     30 H13        -2.2549   -6.8196   -5.6962 H         1 <0>         0.1477
     31 H14        -2.4499  -10.1925   -3.0875 H         1 <0>         0.1494
     32 H15        -2.6177   -8.6931   -1.1452 H         1 <0>         0.1385
     33 H16        -0.9254   -2.3367    0.8222 H         1 <0>         0.4262
@<TRIPOS>BOND
     1    1    2 1
     2    1   18 1
     3    1   19 1
     4    1   20 1
     5    2    3 1
     6    2   21 1
     7    2   22 1
     8    3    4 1
     9    3   23 1
    10    3   24 1
    11    4    5 1
    12    4   25 1
    13    4   33 1
    14    5    6 1
    15    5   26 1
    16    5   27 1
    17    6   10 1
    18    6    7 2
    19    7    8 1
    20    7   28 1
    21    8    9 1
    22    9   10 2
    23    9   11 1
    24   11   16 ar
    25   11   12 ar
    26   12   13 ar
    27   12   29 1
    28   13   14 ar
    29   13   30 1
    30   14   15 ar
    31   14   17 1
    32   15   16 ar
    33   15   31 1
    34   16   32 1
@<TRIPOS>MOLECULE
ZINC70840091
   27    28     0     0     0
SMALL
USER_CHARGES

@<TRIPOS>ATOM
      1 C1         -0.0187    1.5258    0.0104 C.3       1 <0>        -0.1777
      2 C2          0.0021   -0.0041    0.0020 C.3       1 <0>         0.1176
      3 H1          0.5293   -0.3651    0.8851 H         1 <0>         0.1540
      4 C3          0.7074   -0.4901   -1.2379 C.2       1 <0>        -0.0105
      5 C4          1.7600   -1.3436   -1.1319 C.2       1 <0>        -0.1817
      6 S1          2.1781   -1.5677   -2.8563 S.3       1 <0>         0.1393
      7 C5          0.9087   -0.5029   -3.5283 C.2       1 <0>         0.1623
      8 N1          0.3030   -0.0941   -2.4221 N.2       1 <0>        -0.5052
      9 C6          0.6112   -0.1718   -4.9380 C.ar      1 <0>        -0.0561
     10 C7         -0.4350    0.6980   -5.2479 C.ar      1 <0>        -0.0334
     11 C8         -0.7078    1.0031   -6.5664 C.ar      1 <0>        -0.0500
     12 C9          0.0538    0.4479   -7.5812 C.ar      1 <0>        -0.0490
     13 C10         1.0921   -0.4148   -7.2822 C.ar      1 <0>        -0.1315
     14 C11         1.3801   -0.7240   -5.9659 C.ar      1 <0>         0.1337
     15 F1          2.3984   -1.5627   -5.6745 F         1 <0>        -0.1182
     16 Cl1        -2.0091    2.0851   -6.9533 Cl        1 <0>        -0.0372
     17 N2         -1.3761   -0.5125    0.0124 N.4       1 <0>        -0.6343
     18 H2          1.0039    1.9031    0.0027 H         1 <0>         0.1040
     19 H3         -0.5459    1.8868   -0.8726 H         1 <0>         0.0899
     20 H4         -0.5289    1.8773    0.9072 H         1 <0>         0.0869
     21 H5          2.2171   -1.7687   -0.2506 H         1 <0>         0.2118
     22 H6         -1.0304    1.1314   -4.4579 H         1 <0>         0.1545
     23 H7         -0.1646    0.6896   -8.6109 H         1 <0>         0.1581
     24 H8          1.6821   -0.8443   -8.0783 H         1 <0>         0.1623
     25 H9         -1.8641   -0.1783   -0.8050 H         1 <0>         0.4379
     26 H10        -1.3624   -1.5214    0.0069 H         1 <0>         0.4348
     27 H11        -1.8484   -0.1871    0.8426 H         1 <0>         0.4378
@<TRIPOS>BOND
     1    1    2 1
     2    1   18 1
     3    1   19 1
     4    1   20 1
     5    2    3 1
     6    2    4 1
     7    2   17 1
     8    4    8 1
     9    4    5 2
    10    5    6 1
    11    5   21 1
    12    6    7 1
    13    7    8 2
    14    7    9 1
    15    9   14 ar
    16    9   10 ar
    17   10   11 ar
    18   10   22 1
    19   11   12 ar
    20   11   16 1
    21   12   13 ar
    22   12   23 1
    23   13   14 ar
    24   13   24 1
    25   14   15 1
    26   17   25 1
    27   17   26 1
    28   17   27 1
@<TRIPOS>MOLECULE
ZINC70840087
   27    28     0     0     0
SMALL
USER_CHARGES

@<TRIPOS>ATOM
      1 C1         -0.0187    1.5258    0.0104 C.3       1 <0>        -0.1753
      2 C2          0.0021   -0.0041    0.0020 C.3       1 <0>         0.1097
      3 H1          0.5293   -0.3651    0.8851 H         1 <0>         0.1582
      4 C3         -1.4117   -0.5257    0.0127 C.2       1 <0>         0.0375
      5 C4         -1.8245   -1.3932   -0.9488 C.2       1 <0>        -0.2667
      6 S1         -3.5209   -1.6582   -0.4481 S.3       1 <0>         0.1467
      7 C5         -3.4951   -0.5874    0.9836 C.2       1 <0>         0.1762
      8 N1         -2.2449   -0.1472    0.9537 N.2       1 <0>        -0.4919
      9 C6         -4.5753   -0.2800    1.9449 C.ar      1 <0>        -0.0600
     10 C7         -4.3426    0.5996    3.0029 C.ar      1 <0>        -0.0289
     11 C8         -5.3555    0.8825    3.8972 C.ar      1 <0>        -0.0501
     12 C9         -6.6008    0.2953    3.7469 C.ar      1 <0>        -0.0469
     13 C10        -6.8391   -0.5772    2.7012 C.ar      1 <0>        -0.1327
     14 C11        -5.8357   -0.8646    1.7948 C.ar      1 <0>         0.1346
     15 F1         -6.0711   -1.7130    0.7701 F         1 <0>        -0.1190
     16 Cl1        -5.0674    1.9767    5.2138 Cl        1 <0>        -0.0356
     17 N2          0.6897   -0.4778   -1.2066 N.4       1 <0>        -0.6348
     18 H2          1.0039    1.9031    0.0027 H         1 <0>         0.0887
     19 H3         -0.5459    1.8868   -0.8726 H         1 <0>         0.0808
     20 H4         -0.5289    1.8773    0.9072 H         1 <0>         0.1151
     21 H5         -1.2792   -1.8077   -1.7839 H         1 <0>         0.1994
     22 H6         -3.3720    1.0579    3.1220 H         1 <0>         0.1575
     23 H7         -7.3893    0.5198    4.4500 H         1 <0>         0.1585
     24 H8         -7.8125   -1.0318    2.5897 H         1 <0>         0.1625
     25 H9          1.6363   -0.1286   -1.2138 H         1 <0>         0.4443
     26 H10         0.7033   -1.4867   -1.2121 H         1 <0>         0.4369
     27 H11         0.2017   -0.1436   -2.0240 H         1 <0>         0.4351
@<TRIPOS>BOND
     1    1    2 1
     2    1   18 1
     3    1   19 1
     4    1   20 1
     5    2    3 1
     6    2    4 1
     7    2   17 1
     8    4    8 1
     9    4    5 2
    10    5    6 1
    11    5   21 1
    12    6    7 1
    13    7    8 2
    14    7    9 1
    15    9   14 ar
    16    9   10 ar
    17   10   11 ar
    18   10   22 1
    19   11   12 ar
    20   11   16 1
    21   12   13 ar
    22   12   23 1
    23   13   14 ar
    24   13   24 1
    25   14   15 1
    26   17   25 1
    27   17   26 1
    28   17   27 1
@<TRIPOS>MOLECULE
ZINC62606527
   33    34     0     0     0
SMALL
USER_CHARGES

@<TRIPOS>ATOM
      1 C1         -0.0187    1.5258    0.0104 C.3       1 <0>        -0.1565
      2 C2          0.0021   -0.0041    0.0020 C.3       1 <0>        -0.1516
      3 C3          0.7182   -0.4975   -1.2568 C.3       1 <0>        -0.0103
      4 N1          0.7381   -1.9663   -1.2649 N.4       1 <0>        -0.5087
      5 C4          1.4257   -2.4401   -2.4735 C.3       1 <0>         0.0788
      6 C5          1.4462   -3.9469   -2.4818 C.2       1 <0>        -0.0129
      7 C6          0.4883   -4.6370   -3.1554 C.2       1 <0>        -0.1874
      8 S1          1.0003   -6.3188   -2.8267 S.3       1 <0>         0.1355
      9 C7          2.4306   -5.9202   -1.8305 C.2       1 <0>         0.1635
     10 N2          2.3921   -4.5950   -1.8430 N.2       1 <0>        -0.4983
     11 C8          3.3981   -6.8246   -1.1738 C.ar      1 <0>        -0.0570
     12 C9          4.4538   -6.2989   -0.4274 C.ar      1 <0>        -0.0358
     13 C10         5.3537   -7.1475    0.1832 C.ar      1 <0>        -0.1133
     14 C11         5.2131   -8.5185    0.0582 C.ar      1 <0>        -0.0504
     15 C12         4.1696   -9.0489   -0.6797 C.ar      1 <0>        -0.0735
     16 C13         3.2565   -8.2094   -1.2927 C.ar      1 <0>         0.1358
     17 F1          2.2343   -8.7270   -2.0085 F         1 <0>        -0.1119
     18 Cl1         4.0021  -10.7701   -0.8310 Cl        1 <0>        -0.0225
     19 H1          1.0039    1.9031    0.0027 H         1 <0>         0.0677
     20 H2         -0.5459    1.8868   -0.8726 H         1 <0>         0.0675
     21 H3         -0.5289    1.8773    0.9072 H         1 <0>         0.0777
     22 H4          0.5293   -0.3651    0.8851 H         1 <0>         0.0863
     23 H5         -1.0205   -0.3814    0.0098 H         1 <0>         0.0861
     24 H6          0.1910   -0.1364   -2.1398 H         1 <0>         0.1332
     25 H7          1.7408   -0.1202   -1.2645 H         1 <0>         0.1334
     26 H8          1.2261   -2.3006   -0.4474 H         1 <0>         0.4309
     27 H9          0.8985   -2.0790   -3.3565 H         1 <0>         0.1463
     28 H10         2.4483   -2.0628   -2.4812 H         1 <0>         0.1455
     29 H11        -0.3500   -4.2711   -3.7297 H         1 <0>         0.2115
     30 H12         4.5663   -5.2294   -0.3284 H         1 <0>         0.1517
     31 H13         6.1708   -6.7406    0.7605 H         1 <0>         0.1550
     32 H14         5.9212   -9.1775    0.5385 H         1 <0>         0.1572
     33 H15        -0.2085   -2.3156   -1.2577 H         1 <0>         0.4263
@<TRIPOS>BOND
     1    1    2 1
     2    1   19 1
     3    1   20 1
     4    1   21 1
     5    2    3 1
     6    2   22 1
     7    2   23 1
     8    3    4 1
     9    3   24 1
    10    3   25 1
    11    4    5 1
    12    4   26 1
    13    4   33 1
    14    5    6 1
    15    5   27 1
    16    5   28 1
    17    6   10 1
    18    6    7 2
    19    7    8 1
    20    7   29 1
    21    8    9 1
    22    9   10 2
    23    9   11 1
    24   11   16 ar
    25   11   12 ar
    26   12   13 ar
    27   12   30 1
    28   13   14 ar
    29   13   31 1
    30   14   15 ar
    31   14   32 1
    32   15   16 ar
    33   15   18 1
    34   16   17 1
@<TRIPOS>MOLECULE
ZINC11568379
   23    24     0     0     0
SMALL
USER_CHARGES
[2-(3-pyridyl)thiazol-4-yl]methanamine
@<TRIPOS>ATOM
      1 C1         -0.0167    1.3798    0.0096 C.ar      1 <0>        -0.1651
      2 C2          0.0021   -0.0041    0.0020 C.ar      1 <0>        -0.0403
      3 C3          1.2431   -0.6505   -0.0133 C.ar      1 <0>        -0.0970
      4 C4          2.4054    0.1218   -0.0203 C.ar      1 <0>         0.1605
      5 N1          2.3356    1.4368   -0.0125 N.ar      1 <0>        -0.4793
      6 C5          1.1800    2.0731    0.0019 C.ar      1 <0>         0.1351
      7 C6          1.3216   -2.1271   -0.0225 C.2       1 <0>         0.1855
      8 N2          2.3891   -2.9128   -0.0370 N.2       1 <0>        -0.5058
      9 C7          2.2732   -4.2199   -0.0433 C.2       1 <0>        -0.0128
     10 C8          1.0392   -4.7906   -0.0350 C.2       1 <0>        -0.1806
     11 S1          0.0021   -3.3337   -0.0091 S.3       1 <0>         0.0991
     12 C9          3.5056   -5.0869   -0.0603 C.3       1 <0>         0.0837
     13 H1         -0.9560    1.9128    0.0170 H         1 <0>         0.1530
     14 H2         -0.9174   -0.5705    0.0081 H         1 <0>         0.1414
     15 H3          3.3703   -0.3631   -0.0324 H         1 <0>         0.1670
     16 H4          1.1682    3.1530    0.0075 H         1 <0>         0.1712
     17 H5          0.7621   -5.8344   -0.0384 H         1 <0>         0.2119
     18 H6          4.2927   -4.6110    0.5246 H         1 <0>         0.1490
     19 H7          3.2710   -6.0604    0.3703 H         1 <0>         0.1468
     20 H8          4.1249   -4.3693   -1.8879 H         1 <0>         0.4404
     21 H9          4.7885   -5.8397   -1.4837 H         1 <0>         0.4427
     22 N3          3.9423   -5.2733   -1.4553 N.4       1 <0>        -0.6440
     23 H10         3.2009   -5.7521   -1.9800 H         1 <0>         0.4377
@<TRIPOS>BOND
     1    1    6 ar
     2    1    2 ar
     3    1   13 1
     4    2    3 ar
     5    2   14 1
     6    3    4 ar
     7    3    7 1
     8    4    5 ar
     9    4   15 1
    10    5    6 ar
    11    6   16 1
    12    7   11 1
    13    7    8 2
    14    8    9 1
    15    9   10 2
    16    9   12 1
    17   10   11 1
    18   10   17 1
    19   12   18 1
    20   12   19 1
    21   12   22 1
    22   20   22 1
    23   21   22 1
    24   22   23 1
@<TRIPOS>MOLECULE
ZINC62791489
   20    21     0     0     0
SMALL
USER_CHARGES

@<TRIPOS>ATOM
      1 C1         -0.0168    1.3910    0.0097 C.ar      1 <0>        -0.0618
      2 C2          1.1695    2.0950    0.0021 C.ar      1 <0>        -0.1362
      3 C3          2.3789    1.4195   -0.0130 C.ar      1 <0>         0.1296
      4 C4          2.4038    0.0326   -0.0212 C.ar      1 <0>        -0.0751
      5 C5          1.2226   -0.6807   -0.0142 C.ar      1 <0>        -0.0364
      6 C6          0.0021   -0.0041    0.0020 C.ar      1 <0>        -0.0126
      7 C7         -1.2670   -0.7633    0.0105 C.2       1 <0>         0.0995
      8 N1         -1.4519   -2.0692    0.0108 N.2       1 <0>        -0.4303
      9 C8         -2.7013   -2.5350    0.0199 C.2       1 <0>        -0.0585
     10 C9         -3.7452   -1.6267    0.0286 C.2       1 <0>        -0.2144
     11 S1         -2.9412   -0.1484    0.0311 S.3       1 <0>         0.1841
     12 C10        -2.9629   -3.9762    0.0201 C.2       1 <0>         0.4014
     13 O1         -2.0372   -4.7609    0.0124 O.2       1 <0>        -0.4335
     14 Cl1         3.9233   -0.8068   -0.0408 Cl        1 <0>        -0.0342
     15 F1          3.5378    2.1139   -0.0204 F         1 <0>        -0.1184
     16 H1         -0.9589    1.9189    0.0260 H         1 <0>         0.1455
     17 H2          1.1554    3.1749    0.0077 H         1 <0>         0.1571
     18 H3          1.2425   -1.7605   -0.0213 H         1 <0>         0.1575
     19 H4         -4.8080   -1.8183    0.0365 H         1 <0>         0.2133
     20 H5         -3.9796   -4.3404    0.0271 H         1 <0>         0.1235
@<TRIPOS>BOND
     1    1    6 ar
     2    1    2 ar
     3    1   16 1
     4    2    3 ar
     5    2   17 1
     6    3    4 ar
     7    3   15 1
     8    4    5 ar
     9    4   14 1
    10    5    6 ar
    11    5   18 1
    12    6    7 1
    13    7   11 1
    14    7    8 2
    15    8    9 1
    16    9   10 2
    17    9   12 1
    18   10   11 1
    19   10   19 1
    20   12   13 2
    21   12   20 1
@<TRIPOS>MOLECULE
ZINC87012999
   31    33     0     0     0
SMALL
USER_CHARGES

@<TRIPOS>ATOM
      1 C1         -0.0167    1.3791    0.0096 C.ar      1 <0>        -0.1138
      2 C2          1.1670    2.0882    0.0021 C.ar      1 <0>        -0.0686
      3 C3          2.3847    1.4070   -0.0132 C.ar      1 <0>        -0.0394
      4 C4          2.3966    0.0114   -0.0208 C.ar      1 <0>        -0.0794
      5 C5          1.2062   -0.6856   -0.0132 C.ar      1 <0>        -0.0415
      6 C6          0.0021   -0.0041    0.0020 C.ar      1 <0>        -0.0869
      7 C7          1.2172   -2.1925   -0.0219 C.3       1 <0>        -0.1317
      8 C8         -0.1213   -2.9076   -0.2164 C.3       1 <0>        -0.1719
      9 C9          0.5553   -2.9107    1.1558 C.3       1 <0>        -0.1646
     10 C10         3.6569    2.1605   -0.0218 C.2       1 <0>         0.1890
     11 N1          3.8589    3.4706   -0.0117 N.2       1 <0>        -0.5107
     12 C11         5.0710    3.9732   -0.0212 C.2       1 <0>        -0.0127
     13 C12         6.1482    3.1440   -0.0419 C.2       1 <0>        -0.1853
     14 S1          5.3373    1.5499   -0.0406 S.3       1 <0>         0.0940
     15 C13         5.2687    5.4672   -0.0098 C.3       1 <0>         0.0796
     16 N2          5.1966    5.9812   -1.3841 N.4       1 <0>        -0.6349
     17 H1         -0.9598    1.9051    0.0260 H         1 <0>         0.1376
     18 H2          1.1511    3.1680    0.0077 H         1 <0>         0.1346
     19 H3          3.3358   -0.5217   -0.0330 H         1 <0>         0.1287
     20 H4         -0.9272   -0.5544    0.0083 H         1 <0>         0.1359
     21 H5          2.1028   -2.6537   -0.4592 H         1 <0>         0.1176
     22 H6         -1.0099   -2.2882   -0.3381 H         1 <0>         0.1006
     23 H7         -0.1166   -3.8395   -0.7819 H         1 <0>         0.1038
     24 H8          1.0052   -3.8444    1.4931 H         1 <0>         0.1033
     25 H9          0.1119   -2.2931    1.9370 H         1 <0>         0.0984
     26 H10         7.2016    3.3819   -0.0526 H         1 <0>         0.2104
     27 H11         4.4890    5.9322    0.5934 H         1 <0>         0.1471
     28 H12         6.2449    5.7013    0.4149 H         1 <0>         0.1482
     29 H13         5.3289    6.9814   -1.3764 H         1 <0>         0.4402
     30 H14         5.9183    5.5507   -1.9425 H         1 <0>         0.4337
     31 H15         4.2929    5.7645   -1.7772 H         1 <0>         0.4384
@<TRIPOS>BOND
     1    1    6 ar
     2    1    2 ar
     3    1   17 1
     4    2    3 ar
     5    2   18 1
     6    3    4 ar
     7    3   10 1
     8    4    5 ar
     9    4   19 1
    10    5    6 ar
    11    5    7 1
    12    6   20 1
    13    7    9 1
    14    7    8 1
    15    7   21 1
    16    8    9 1
    17    8   22 1
    18    8   23 1
    19    9   24 1
    20    9   25 1
    21   10   14 1
    22   10   11 2
    23   11   12 1
    24   12   13 2
    25   12   15 1
    26   13   14 1
    27   13   26 1
    28   15   16 1
    29   15   27 1
    30   15   28 1
    31   16   29 1
    32   16   30 1
    33   16   31 1
@<TRIPOS>MOLECULE
ZINC43388147
   27    28     0     0     0
SMALL
USER_CHARGES

@<TRIPOS>ATOM
      1 C1         -0.0178    1.4648    0.0101 C.3       1 <0>        -0.0470
      2 N1          0.0021   -0.0041    0.0020 N.4       1 <0>        -0.5087
      3 C2         -1.3761   -0.5125    0.0124 C.3       1 <0>         0.0766
      4 C3         -1.3556   -2.0194    0.0042 C.2       1 <0>        -0.0131
      5 C4         -1.4429   -2.7080    1.1732 C.2       1 <0>        -0.1744
      6 S1         -1.3720   -4.3906    0.5710 S.3       1 <0>         0.1189
      7 C5         -1.2342   -3.9940   -1.1670 C.2       1 <0>         0.1675
      8 N2         -1.2590   -2.6691   -1.1318 N.2       1 <0>        -0.4964
      9 C6         -1.1270   -4.9001   -2.3308 C.ar      1 <0>         0.0234
     10 C7         -1.0214   -4.3753   -3.6192 C.ar      1 <0>        -0.1149
     11 C8         -0.9210   -5.2267   -4.7033 C.ar      1 <0>         0.1396
     12 C9         -0.9255   -6.5987   -4.5124 C.ar      1 <0>        -0.1624
     13 C10        -1.0306   -7.1251   -3.2353 C.ar      1 <0>         0.1456
     14 C11        -1.1253   -6.2827   -2.1437 C.ar      1 <0>        -0.1367
     15 F1         -1.0348   -8.4641   -3.0561 F         1 <0>        -0.1159
     16 F2         -0.8188   -4.7198   -5.9515 F         1 <0>        -0.1178
     17 H1          1.0047    1.8421    0.0024 H         1 <0>         0.1282
     18 H2         -0.5450    1.8259   -0.8730 H         1 <0>         0.1256
     19 H3         -0.5280    1.8163    0.9069 H         1 <0>         0.1254
     20 H4          0.4744   -0.3295   -0.8281 H         1 <0>         0.4334
     21 H5         -1.8863   -0.1610    0.9092 H         1 <0>         0.1472
     22 H6         -1.9033   -0.1515   -0.8706 H         1 <0>         0.1462
     23 H7         -1.5305   -2.3408    2.1851 H         1 <0>         0.2136
     24 H8         -1.0185   -3.3058   -3.7692 H         1 <0>         0.1553
     25 H9         -0.8472   -7.2605   -5.3623 H         1 <0>         0.1627
     26 H10        -1.2022   -6.6940   -1.1480 H         1 <0>         0.1495
     27 H11         0.4901   -0.3383    0.8195 H         1 <0>         0.4287
@<TRIPOS>BOND
     1    1    2 1
     2    1   17 1
     3    1   18 1
     4    1   19 1
     5    2    3 1
     6    2   20 1
     7    2   27 1
     8    3    4 1
     9    3   21 1
    10    3   22 1
    11    4    8 1
    12    4    5 2
    13    5    6 1
    14    5   23 1
    15    6    7 1
    16    7    8 2
    17    7    9 1
    18    9   14 ar
    19    9   10 ar
    20   10   11 ar
    21   10   24 1
    22   11   12 ar
    23   11   16 1
    24   12   13 ar
    25   12   25 1
    26   13   14 ar
    27   13   15 1
    28   14   26 1
@<TRIPOS>MOLECULE
ZINC40999571
   30    31     0     0     0
SMALL
USER_CHARGES

@<TRIPOS>ATOM
      1 C1         -0.0184    1.5028    0.0103 C.3       1 <0>        -0.1274
      2 C2          0.0021   -0.0041    0.0020 C.ar      1 <0>        -0.0802
      3 C3          0.0057   -0.6864   -1.2013 C.ar      1 <0>        -0.0882
      4 C4          0.0249   -2.0657   -1.2162 C.ar      1 <0>        -0.0892
      5 C5          0.0406   -2.7744   -0.0139 C.ar      1 <0>        -0.0203
      6 C6          0.0368   -2.0825    1.1974 C.ar      1 <0>        -0.0964
      7 C7          0.0229   -0.7004    1.1996 C.ar      1 <0>         0.0985
      8 F1          0.0248   -0.0277    2.3712 F         1 <0>        -0.1265
      9 C8          0.0606   -4.2530   -0.0241 C.2       1 <0>         0.1805
     10 N1          0.0719   -5.1013    0.9945 N.2       1 <0>        -0.5063
     11 C9          0.0895   -6.3989    0.8004 C.2       1 <0>        -0.0104
     12 C10         0.0966   -6.8946   -0.4656 C.2       1 <0>        -0.1815
     13 S1          0.0683   -5.3783   -1.4136 S.3       1 <0>         0.1044
     14 C11         0.1025   -7.3382    1.9788 C.3       1 <0>         0.0765
     15 N2          1.4849   -7.5298    2.4372 N.4       1 <0>        -0.5086
     16 C12         1.4975   -8.4454    3.5858 C.3       1 <0>        -0.0469
     17 H1          1.0042    1.8801    0.0026 H         1 <0>         0.0855
     18 H2         -0.5455    1.8639   -0.8728 H         1 <0>         0.0821
     19 H3         -0.5286    1.8543    0.9071 H         1 <0>         0.0780
     20 H4         -0.0068   -0.1379   -2.1316 H         1 <0>         0.1491
     21 H5          0.0273   -2.5964   -2.1568 H         1 <0>         0.1365
     22 H6          0.0489   -2.6254    2.1310 H         1 <0>         0.1473
     23 H7          0.1105   -7.9198   -0.8048 H         1 <0>         0.2114
     24 H8         -0.4931   -6.9148    2.7876 H         1 <0>         0.1453
     25 H9         -0.3184   -8.2990    1.6823 H         1 <0>         0.1464
     26 H10         2.0362   -7.9218    1.6885 H         1 <0>         0.4284
     27 H11         1.0766   -9.4062    3.2893 H         1 <0>         0.1253
     28 H12         2.5233   -8.5876    3.9259 H         1 <0>         0.1279
     29 H13         0.9020   -8.0220    4.3946 H         1 <0>         0.1253
     30 H14         1.8745   -6.6405    2.7117 H         1 <0>         0.4333
@<TRIPOS>BOND
     1    1    2 1
     2    1   17 1
     3    1   18 1
     4    1   19 1
     5    2    7 ar
     6    2    3 ar
     7    3    4 ar
     8    3   20 1
     9    4    5 ar
    10    4   21 1
    11    5    6 ar
    12    5    9 1
    13    6    7 ar
    14    6   22 1
    15    7    8 1
    16    9   13 1
    17    9   10 2
    18   10   11 1
    19   11   12 2
    20   11   14 1
    21   12   13 1
    22   12   23 1
    23   14   15 1
    24   14   24 1
    25   14   25 1
    26   15   16 1
    27   15   26 1
    28   15   30 1
    29   16   27 1
    30   16   28 1
    31   16   29 1
@<TRIPOS>MOLECULE
ZINC52139976
   27    28     0     0     0
SMALL
USER_CHARGES

@<TRIPOS>ATOM
      1 C1         -0.3020    1.4845    0.0458 C.3       1 <0>        -0.1131
      2 C2         -0.1341   -0.0129    0.0191 C.ar      1 <0>        -0.0423
      3 C3         -0.2339   -0.6981   -1.1745 C.ar      1 <0>        -0.0894
      4 C4         -0.0797   -2.0722   -1.2021 C.ar      1 <0>        -0.1153
      5 C5          0.1754   -2.7700   -0.0322 C.ar      1 <0>         0.1015
      6 C6          0.2770   -2.0947    1.1691 C.ar      1 <0>        -0.1176
      7 C7          0.1283   -0.7077    1.2003 C.ar      1 <0>        -0.0171
      8 C8          0.2418    0.0223    2.4813 C.2       1 <0>         0.1815
      9 N1          0.9146    1.1295    2.7619 N.2       1 <0>        -0.4938
     10 C9          0.9038    1.6461    3.9681 C.2       1 <0>        -0.0195
     11 C10         0.1923    1.0428    4.9572 C.2       1 <0>        -0.1778
     12 S1         -0.4979   -0.3463    4.0669 S.3       1 <0>         0.1038
     13 C11         1.6791    2.9057    4.2566 C.3       1 <0>         0.0799
     14 N2          3.0728    2.5622    4.5689 N.4       1 <0>        -0.6352
     15 F1          0.3244   -4.1123   -0.0662 F         1 <0>        -0.1273
     16 H1          0.6769    1.9609   -0.0077 H         1 <0>         0.0817
     17 H2         -0.9055    1.7977   -0.8061 H         1 <0>         0.0762
     18 H3         -0.7988    1.7779    0.9706 H         1 <0>         0.0637
     19 H4         -0.4332   -0.1600   -2.0895 H         1 <0>         0.1480
     20 H5         -0.1588   -2.6036   -2.1390 H         1 <0>         0.1494
     21 H6          0.4754   -2.6387    2.0808 H         1 <0>         0.1425
     22 H7          0.0734    1.3262    5.9926 H         1 <0>         0.2114
     23 H8          1.6524    3.5570    3.3830 H         1 <0>         0.1475
     24 H9          1.2325    3.4205    5.1073 H         1 <0>         0.1484
     25 H10         3.0976    1.9593    5.3776 H         1 <0>         0.4338
     26 H11         3.4863    2.0857    3.7814 H         1 <0>         0.4386
     27 H12         3.5920    3.4055    4.7621 H         1 <0>         0.4406
@<TRIPOS>BOND
     1    1    2 1
     2    1   16 1
     3    1   17 1
     4    1   18 1
     5    2    7 ar
     6    2    3 ar
     7    3    4 ar
     8    3   19 1
     9    4    5 ar
    10    4   20 1
    11    5    6 ar
    12    5   15 1
    13    6    7 ar
    14    6   21 1
    15    7    8 1
    16    8   12 1
    17    8    9 2
    18    9   10 1
    19   10   11 2
    20   10   13 1
    21   11   12 1
    22   11   22 1
    23   13   14 1
    24   13   23 1
    25   13   24 1
    26   14   25 1
    27   14   26 1
    28   14   27 1
@<TRIPOS>MOLECULE
ZINC11851477
   27    28     0     0     0
SMALL
USER_CHARGES
[4-(4-methylthiazol-2-yl)phenyl]methanamine
@<TRIPOS>ATOM
      1 C1         -2.4771    1.3888    0.0185 C.3       1 <0>        -0.0879
      2 C2         -1.0705    1.9297    0.0166 C.2       1 <0>         0.0527
      3 C3         -0.0126    1.0758    0.0080 C.2       1 <0>        -0.1781
      4 S1          1.3481    2.2365    0.0012 S.3       1 <0>         0.0354
      5 C4          0.3620    3.7279    0.0186 C.2       1 <0>         0.1087
      6 N1         -0.8647    3.2257    0.0277 N.2       1 <0>        -0.4766
      7 C5          0.7976    5.1410    0.0221 C.ar      1 <0>         0.0386
      8 C6         -0.1492    6.1661    0.0313 C.ar      1 <0>        -0.0752
      9 C7          0.2639    7.4825    0.0389 C.ar      1 <0>        -0.0882
     10 C8          1.6133    7.7872    0.0276 C.ar      1 <0>        -0.1646
     11 C9          2.5570    6.7756    0.0131 C.ar      1 <0>        -0.0853
     12 C10         2.1572    5.4552    0.0103 C.ar      1 <0>        -0.0961
     13 C11         2.0573    9.2274    0.0305 C.3       1 <0>         0.0516
     14 H1         -2.8126    1.2525    1.0466 H         1 <0>         0.0792
     15 H2         -3.1375    2.0920   -0.4890 H         1 <0>         0.0773
     16 H3         -2.4986    0.4307   -0.5008 H         1 <0>         0.0795
     17 H4          0.0021   -0.0041    0.0020 H         1 <0>         0.2069
     18 H5         -1.2029    5.9295    0.0360 H         1 <0>         0.1481
     19 H6         -0.4678    8.2768    0.0494 H         1 <0>         0.1404
     20 H7          3.6090    7.0201    0.0036 H         1 <0>         0.1409
     21 H8          2.8948    4.6664   -0.0014 H         1 <0>         0.1398
     22 H9          1.3189    9.8341    0.5548 H         1 <0>         0.1400
     23 H10         3.0198    9.3098    0.5353 H         1 <0>         0.1428
     24 H11         2.4847   10.6664   -1.3783 H         1 <0>         0.4403
     25 H12         2.8188    9.1160   -1.8789 H         1 <0>         0.4369
     26 N2          2.1639    9.6997   -1.3612 N.4       1 <0>        -0.6462
     27 H13         1.2410    9.6451   -1.8078 H         1 <0>         0.4392
@<TRIPOS>BOND
     1    1    2 1
     2    1   14 1
     3    1   15 1
     4    1   16 1
     5    2    6 1
     6    2    3 2
     7    3    4 1
     8    3   17 1
     9    4    5 1
    10    5    6 2
    11    5    7 1
    12    7   12 ar
    13    7    8 ar
    14    8    9 ar
    15    8   18 1
    16    9   10 ar
    17    9   19 1
    18   10   11 ar
    19   10   13 1
    20   11   12 ar
    21   11   20 1
    22   12   21 1
    23   13   22 1
    24   13   23 1
    25   13   26 1
    26   24   26 1
    27   25   26 1
    28   26   27 1
@<TRIPOS>MOLECULE
ZINC52903514
   24    25     0     0     0
SMALL
USER_CHARGES

@<TRIPOS>ATOM
      1 C1         -0.0167    1.3790    0.0096 C.ar      1 <0>        -0.0440
      2 C2          1.1676    2.0937    0.0022 C.ar      1 <0>        -0.1424
      3 C3          2.3792    1.4291   -0.0134 C.ar      1 <0>         0.1406
      4 C4          2.4052    0.0316   -0.0211 C.ar      1 <0>        -0.0651
      5 C5          1.2052   -0.6821   -0.0130 C.ar      1 <0>         0.0325
      6 C6          0.0021   -0.0041    0.0020 C.ar      1 <0>        -0.1195
      7 Cl1         1.2254   -2.4180   -0.0230 Cl        1 <0>        -0.0248
      8 C7          3.6967   -0.6870   -0.0382 C.2       1 <0>         0.1591
      9 N1          3.9337   -1.9914   -0.0530 N.2       1 <0>        -0.4831
     10 C8          5.1595   -2.4610   -0.0671 C.2       1 <0>        -0.0177
     11 C9          6.2136   -1.6030   -0.0667 C.2       1 <0>        -0.1869
     12 S1          5.3601   -0.0314   -0.0524 S.3       1 <0>         0.1344
     13 C10         5.3976   -3.9490   -0.0833 C.3       1 <0>         0.0800
     14 N2          5.3660   -4.4648    1.2918 N.4       1 <0>        -0.6353
     15 F1          3.5352    2.1282   -0.0216 F         1 <0>        -0.1172
     16 H1         -0.9607    1.9034    0.0260 H         1 <0>         0.1578
     17 H2          1.1454    3.1735    0.0081 H         1 <0>         0.1585
     18 H3         -0.9267   -0.5553    0.0079 H         1 <0>         0.1549
     19 H4          7.2731   -1.8123   -0.0767 H         1 <0>         0.2110
     20 H5          4.6194   -4.4351   -0.6717 H         1 <0>         0.1466
     21 H6          6.3714   -4.1563   -0.5269 H         1 <0>         0.1487
     22 H7          4.4645   -4.2729    1.7024 H         1 <0>         0.4381
     23 H8          5.5254   -5.4611    1.2810 H         1 <0>         0.4402
     24 H9          6.0863   -4.0149    1.8365 H         1 <0>         0.4339
@<TRIPOS>BOND
     1    1    6 ar
     2    1    2 ar
     3    1   16 1
     4    2    3 ar
     5    2   17 1
     6    3    4 ar
     7    3   15 1
     8    4    5 ar
     9    4    8 1
    10    5    6 ar
    11    5    7 1
    12    6   18 1
    13    8   12 1
    14    8    9 2
    15    9   10 1
    16   10   11 2
    17   10   13 1
    18   11   12 1
    19   11   19 1
    20   13   14 1
    21   13   20 1
    22   13   21 1
    23   14   22 1
    24   14   23 1
    25   14   24 1
@<TRIPOS>MOLECULE
ZINC40414551
   33    34     0     0     0
SMALL
USER_CHARGES

@<TRIPOS>ATOM
      1 C1         -0.0187    1.5258    0.0104 C.3       1 <0>        -0.1900
      2 C2          0.0021   -0.0041    0.0020 C.3       1 <0>        -0.0095
      3 N1         -1.3761   -0.5125    0.0124 N.4       1 <0>        -0.5088
      4 C3         -1.3562   -1.9814    0.0044 C.3       1 <0>         0.0781
      5 C4         -2.7700   -2.5030    0.0151 C.2       1 <0>        -0.0081
      6 C5         -3.3827   -2.8334   -1.1528 C.2       1 <0>        -0.1859
      7 S1         -4.9783   -3.3693   -0.5480 S.3       1 <0>         0.0891
      8 C6         -4.6557   -3.0954    1.1892 C.2       1 <0>         0.1904
      9 N2         -3.4098   -2.6441    1.1520 N.2       1 <0>        -0.5120
     10 C7         -5.5389   -3.3177    2.3541 C.ar      1 <0>        -0.0527
     11 C8         -5.0859   -3.0291    3.6421 C.ar      1 <0>        -0.0571
     12 C9         -5.9150   -3.2388    4.7248 C.ar      1 <0>        -0.1239
     13 C10        -7.1927   -3.7345    4.5357 C.ar      1 <0>        -0.0443
     14 C11        -7.6477   -4.0232    3.2614 C.ar      1 <0>        -0.1183
     15 C12        -6.8310   -3.8117    2.1697 C.ar      1 <0>        -0.0776
     16 C13        -8.0926   -3.9616    5.7230 C.3       1 <0>        -0.1279
     17 H1          1.0039    1.9031    0.0027 H         1 <0>         0.1081
     18 H2         -0.5459    1.8868   -0.8726 H         1 <0>         0.0804
     19 H3         -0.5289    1.8773    0.9072 H         1 <0>         0.0806
     20 H4          0.5123   -0.3556   -0.8948 H         1 <0>         0.1324
     21 H5          0.5293   -0.3651    0.8851 H         1 <0>         0.1324
     22 H6         -1.8484   -0.1871    0.8426 H         1 <0>         0.4309
     23 H7         -0.8460   -2.3329   -0.8924 H         1 <0>         0.1453
     24 H8         -0.8290   -2.3425    0.8874 H         1 <0>         0.1446
     25 H9         -3.0096   -2.7853   -2.1651 H         1 <0>         0.2096
     26 H10        -4.0885   -2.6427    3.7910 H         1 <0>         0.1344
     27 H11        -5.5656   -3.0158    5.7221 H         1 <0>         0.1361
     28 H12        -8.6460   -4.4103    3.1205 H         1 <0>         0.1378
     29 H13        -7.1891   -4.0325    1.1751 H         1 <0>         0.1287
     30 H14        -8.6685   -3.0575    5.9206 H         1 <0>         0.0814
     31 H15        -8.7728   -4.7865    5.5109 H         1 <0>         0.0752
     32 H16        -7.4875   -4.2050    6.5963 H         1 <0>         0.0747
     33 H17        -1.8641   -0.1783   -0.8050 H         1 <0>         0.4259
@<TRIPOS>BOND
     1    1    2 1
     2    1   17 1
     3    1   18 1
     4    1   19 1
     5    2    3 1
     6    2   20 1
     7    2   21 1
     8    3    4 1
     9    3   22 1
    10    3   33 1
    11    4    5 1
    12    4   23 1
    13    4   24 1
    14    5    9 1
    15    5    6 2
    16    6    7 1
    17    6   25 1
    18    7    8 1
    19    8    9 2
    20    8   10 1
    21   10   15 ar
    22   10   11 ar
    23   11   12 ar
    24   11   26 1
    25   12   13 ar
    26   12   27 1
    27   13   14 ar
    28   13   16 1
    29   14   15 ar
    30   14   28 1
    31   15   29 1
    32   16   30 1
    33   16   31 1
    34   16   32 1
@<TRIPOS>MOLECULE
ZINC40419378
   24    25     0     0     0
SMALL
USER_CHARGES

@<TRIPOS>ATOM
      1 C1         -0.0167    1.3789    0.0096 C.ar      1 <0>        -0.1055
      2 C2          1.1670    2.0882    0.0021 C.ar      1 <0>        -0.0706
      3 C3          2.3850    1.4077   -0.0132 C.ar      1 <0>        -0.0354
      4 C4          2.3979    0.0123   -0.0208 C.ar      1 <0>        -0.0376
      5 C5          1.2071   -0.6858   -0.0132 C.ar      1 <0>        -0.0964
      6 C6          0.0021   -0.0041    0.0020 C.ar      1 <0>        -0.0567
      7 Br1         1.2216   -2.5767   -0.0235 Br        1 <0>        -0.0251
      8 C7          3.6568    2.1620   -0.0218 C.2       1 <0>         0.1805
      9 N1          4.9028    1.7101   -0.0416 N.2       1 <0>        -0.5062
     10 C8          5.9257    2.5321   -0.0469 C.2       1 <0>        -0.0133
     11 C9          5.7156    3.8753   -0.0318 C.2       1 <0>        -0.1807
     12 S1          3.9280    3.9293   -0.0161 S.3       1 <0>         0.1042
     13 C10         7.3310    1.9882   -0.0691 C.3       1 <0>         0.0791
     14 N2          7.7608    1.6859    1.3027 N.4       1 <0>        -0.6350
     15 H1         -0.9598    1.9048    0.0260 H         1 <0>         0.1491
     16 H2          1.1506    3.1681    0.0077 H         1 <0>         0.1361
     17 H3          3.3375   -0.5202   -0.0330 H         1 <0>         0.1450
     18 H4         -0.9271   -0.5545    0.0080 H         1 <0>         0.1467
     19 H5          6.4301    4.6852   -0.0333 H         1 <0>         0.2120
     20 H6          7.3586    1.0775   -0.6675 H         1 <0>         0.1478
     21 H7          8.0007    2.7297   -0.5047 H         1 <0>         0.1490
     22 H8          7.1408    0.9995    1.7059 H         1 <0>         0.4386
     23 H9          8.7017    1.3217    1.2878 H         1 <0>         0.4408
     24 H10         7.7352    2.5289    1.8566 H         1 <0>         0.4338
@<TRIPOS>BOND
     1    1    6 ar
     2    1    2 ar
     3    1   15 1
     4    2    3 ar
     5    2   16 1
     6    3    4 ar
     7    3    8 1
     8    4    5 ar
     9    4   17 1
    10    5    6 ar
    11    5    7 1
    12    6   18 1
    13    8   12 1
    14    8    9 2
    15    9   10 1
    16   10   11 2
    17   10   13 1
    18   11   12 1
    19   11   19 1
    20   13   14 1
    21   13   20 1
    22   13   21 1
    23   14   22 1
    24   14   23 1
    25   14   24 1
@<TRIPOS>MOLECULE
ZINC40999818
   33    34     0     0     0
SMALL
USER_CHARGES

@<TRIPOS>ATOM
      1 C1         -0.0184    1.5028    0.0103 C.3       1 <0>        -0.1290
      2 C2          0.0021   -0.0041    0.0020 C.ar      1 <0>        -0.0464
      3 C3          0.0057   -0.6863   -1.2018 C.ar      1 <0>        -0.1193
      4 C4          0.0249   -2.0656   -1.2163 C.ar      1 <0>        -0.0635
      5 C5          0.0405   -2.7729   -0.0133 C.ar      1 <0>        -0.0480
      6 C6          0.0368   -2.0789    1.1972 C.ar      1 <0>        -0.0805
      7 C7          0.0229   -0.6991    1.1979 C.ar      1 <0>        -0.0814
      8 C8          0.0250    0.0522    2.5042 C.3       1 <0>        -0.1235
      9 C9          0.0606   -4.2514   -0.0214 C.2       1 <0>         0.1918
     10 N1          0.0722   -5.0870   -1.0504 N.2       1 <0>        -0.5124
     11 C10         0.0898   -6.3870   -0.8724 C.2       1 <0>        -0.0089
     12 C11         0.0964   -6.8982    0.3874 C.2       1 <0>        -0.1865
     13 S1          0.0837   -5.3936    1.3541 S.3       1 <0>         0.0887
     14 C12         0.1021   -7.3116   -2.0623 C.3       1 <0>         0.0770
     15 N2         -1.2747   -7.5349   -2.5232 N.4       1 <0>        -0.5085
     16 C13        -1.2627   -8.4363   -3.6831 C.3       1 <0>        -0.0467
     17 H1          1.0042    1.8801    0.0026 H         1 <0>         0.0815
     18 H2         -0.5455    1.8639   -0.8728 H         1 <0>         0.0745
     19 H3         -0.5286    1.8543    0.9071 H         1 <0>         0.0769
     20 H4         -0.0068   -0.1378   -2.1321 H         1 <0>         0.1363
     21 H5          0.0273   -2.5969   -2.1566 H         1 <0>         0.1340
     22 H6          0.0489   -2.6204    2.1315 H         1 <0>         0.1282
     23 H7         -1.0020    0.2194    2.8289 H         1 <0>         0.0783
     24 H8          0.5540   -0.5310    3.2579 H         1 <0>         0.0715
     25 H9          0.5246    1.0118    2.3707 H         1 <0>         0.0772
     26 H10         0.1097   -7.9276    0.7138 H         1 <0>         0.2096
     27 H11         0.6858   -6.8622   -2.8657 H         1 <0>         0.1447
     28 H12         0.5489   -8.2642   -1.7776 H         1 <0>         0.1455
     29 H13        -1.8151   -7.9510   -1.7795 H         1 <0>         0.4283
     30 H14        -2.2843   -8.6020   -4.0251 H         1 <0>         0.1276
     31 H15        -0.6790   -7.9869   -4.4865 H         1 <0>         0.1251
     32 H16        -0.8159   -9.3889   -3.3984 H         1 <0>         0.1250
     33 H17        -1.6884   -6.6532   -2.7868 H         1 <0>         0.4332
@<TRIPOS>BOND
     1    1    2 1
     2    1   17 1
     3    1   18 1
     4    1   19 1
     5    2    7 ar
     6    2    3 ar
     7    3    4 ar
     8    3   20 1
     9    4    5 ar
    10    4   21 1
    11    5    6 ar
    12    5    9 1
    13    6    7 ar
    14    6   22 1
    15    7    8 1
    16    8   23 1
    17    8   24 1
    18    8   25 1
    19    9   13 1
    20    9   10 2
    21   10   11 1
    22   11   12 2
    23   11   14 1
    24   12   13 1
    25   12   26 1
    26   14   15 1
    27   14   27 1
    28   14   28 1
    29   15   16 1
    30   15   29 1
    31   15   33 1
    32   16   30 1
    33   16   31 1
    34   16   32 1
@<TRIPOS>MOLECULE
ZINC55266057
   24    25     0     0     0
SMALL
USER_CHARGES

@<TRIPOS>ATOM
      1 C1         -0.0167    1.3817    0.0096 C.ar      1 <0>        -0.1587
      2 C2          1.1662    2.0911    0.0022 C.ar      1 <0>        -0.0267
      3 C3          2.3847    1.4115   -0.0131 C.ar      1 <0>        -0.0876
      4 C4          2.3992    0.0136   -0.0207 C.ar      1 <0>         0.1859
      5 C5          1.2080   -0.6860   -0.0131 C.ar      1 <0>        -0.1951
      6 C6          0.0021   -0.0041    0.0020 C.ar      1 <0>         0.1712
      7 F1         -1.1602   -0.6927    0.0098 F         1 <0>        -0.1142
      8 F2          3.5751   -0.6515   -0.0359 F         1 <0>        -0.1094
      9 C7          3.6553    2.1667   -0.0216 C.2       1 <0>         0.1745
     10 N1          4.9020    1.7160   -0.0415 N.2       1 <0>        -0.4971
     11 C8          5.9242    2.5398   -0.0467 C.2       1 <0>        -0.0131
     12 C9          5.7125    3.8821   -0.0317 C.2       1 <0>        -0.1789
     13 S1          3.9249    3.9343   -0.0160 S.3       1 <0>         0.1082
     14 C10         7.3302    1.9978   -0.0689 C.3       1 <0>         0.0793
     15 N2          7.7604    1.6962    1.3030 N.4       1 <0>        -0.6349
     16 H1         -0.9600    1.9075    0.0260 H         1 <0>         0.1602
     17 H2          1.1492    3.1709    0.0077 H         1 <0>         0.1503
     18 H3          1.2168   -1.7659   -0.0189 H         1 <0>         0.1632
     19 H4          6.4260    4.6928   -0.0328 H         1 <0>         0.2127
     20 H5          7.3592    1.0872   -0.6672 H         1 <0>         0.1480
     21 H6          7.9990    2.7402   -0.5044 H         1 <0>         0.1491
     22 H7          7.7336    2.5392    1.8568 H         1 <0>         0.4335
     23 H8          7.1413    1.0090    1.7062 H         1 <0>         0.4390
     24 H9          8.7018    1.3333    1.2881 H         1 <0>         0.4408
@<TRIPOS>BOND
     1    1    6 ar
     2    1    2 ar
     3    1   16 1
     4    2    3 ar
     5    2   17 1
     6    3    4 ar
     7    3    9 1
     8    4    5 ar
     9    4    8 1
    10    5    6 ar
    11    5   18 1
    12    6    7 1
    13    9   13 1
    14    9   10 2
    15   10   11 1
    16   11   12 2
    17   11   14 1
    18   12   13 1
    19   12   19 1
    20   14   15 1
    21   14   20 1
    22   14   21 1
    23   15   22 1
    24   15   23 1
    25   15   24 1
@<TRIPOS>MOLECULE
ZINC40999576
   30    31     0     0     0
SMALL
USER_CHARGES

@<TRIPOS>ATOM
      1 C1         -0.0184    1.5028    0.0103 C.3       1 <0>        -0.1225
      2 C2          0.0021   -0.0041    0.0020 C.ar      1 <0>        -0.1118
      3 C3          0.0057   -0.6860   -1.1970 C.ar      1 <0>        -0.0576
      4 C4          0.0246   -2.0813   -1.2032 C.ar      1 <0>        -0.0497
      5 C5          0.0398   -2.7795    0.0053 C.ar      1 <0>        -0.0401
      6 C6          0.0360   -2.0881    1.1983 C.ar      1 <0>        -0.1502
      7 C7          0.0229   -0.7020    1.1989 C.ar      1 <0>         0.1351
      8 F1          0.0253   -0.0293    2.3704 F         1 <0>        -0.1225
      9 C8          0.0281   -2.8174   -2.4854 C.2       1 <0>         0.1854
     10 N1          0.0393   -4.1247   -2.7050 N.2       1 <0>        -0.5084
     11 C9          0.0402   -4.6108   -3.9242 C.2       1 <0>        -0.0098
     12 C10         0.0296   -3.7671   -4.9899 C.2       1 <0>        -0.1823
     13 S1          0.0104   -2.1843   -4.1575 S.3       1 <0>         0.0965
     14 C11         0.0536   -6.1019   -4.1422 C.3       1 <0>         0.0767
     15 N2          1.4381   -6.5910   -4.0971 N.4       1 <0>        -0.5086
     16 C12         1.4511   -8.0445   -4.3096 C.3       1 <0>        -0.0468
     17 H1          1.0042    1.8801    0.0026 H         1 <0>         0.0830
     18 H2         -0.5455    1.8639   -0.8728 H         1 <0>         0.0787
     19 H3         -0.5286    1.8543    0.9071 H         1 <0>         0.0788
     20 H4         -0.0065   -0.1409   -2.1293 H         1 <0>         0.1388
     21 H5          0.0541   -3.8594    0.0060 H         1 <0>         0.1450
     22 H6          0.0478   -2.6274    2.1340 H         1 <0>         0.1504
     23 H7          0.0287   -3.9907   -6.0465 H         1 <0>         0.2108
     24 H8         -0.5294   -6.5887   -3.3603 H         1 <0>         0.1453
     25 H9         -0.3811   -6.3308   -5.1153 H         1 <0>         0.1460
     26 H10         1.9777   -6.1404   -4.8209 H         1 <0>         0.4284
     27 H11         0.8681   -8.5312   -3.5277 H         1 <0>         0.1253
     28 H12         1.0164   -8.2733   -5.2826 H         1 <0>         0.1251
     29 H13         2.4783   -8.4074   -4.2761 H         1 <0>         0.1278
     30 H14         1.8404   -6.3792   -3.1964 H         1 <0>         0.4332
@<TRIPOS>BOND
     1    1    2 1
     2    1   17 1
     3    1   18 1
     4    1   19 1
     5    2    7 ar
     6    2    3 ar
     7    3    4 ar
     8    3   20 1
     9    4    5 ar
    10    4    9 1
    11    5    6 ar
    12    5   21 1
    13    6    7 ar
    14    6   22 1
    15    7    8 1
    16    9   13 1
    17    9   10 2
    18   10   11 1
    19   11   12 2
    20   11   14 1
    21   12   13 1
    22   12   23 1
    23   14   15 1
    24   14   24 1
    25   14   25 1
    26   15   16 1
    27   15   26 1
    28   15   30 1
    29   16   27 1
    30   16   28 1
    31   16   29 1
@<TRIPOS>MOLECULE
ZINC11568388
   27    28     0     0     0
SMALL
USER_CHARGES
(1R)-1-[2-(2-chlorophenyl)thiazol-4-yl]ethanamine
@<TRIPOS>ATOM
      1 C1         -0.7527    1.5927   -1.2315 C.3       1 <0>        -0.1752
      2 C2         -0.0127    1.0858    0.0080 C.3       1 <0>         0.1217
      3 H1          0.0021   -0.0041    0.0020 H         1 <0>         0.1515
      4 C3         -0.7181    1.5718    1.2479 C.2       1 <0>        -0.0101
      5 C4         -1.1291    0.6824    2.1902 C.2       1 <0>        -0.1739
      6 S1         -1.8703    1.7870    3.3856 S.3       1 <0>         0.1001
      7 C5         -1.5600    3.3080    2.4982 C.2       1 <0>         0.1738
      8 N1         -0.9414    2.8540    1.4172 N.2       1 <0>        -0.4932
      9 C6         -1.9012    4.6976    2.8701 C.ar      1 <0>        -0.0319
     10 C7         -2.5630    4.9597    4.0705 C.ar      1 <0>        -0.0750
     11 C8         -2.8785    6.2584    4.4117 C.ar      1 <0>        -0.1086
     12 C9         -2.5404    7.3012    3.5670 C.ar      1 <0>        -0.0720
     13 C10        -1.8845    7.0496    2.3757 C.ar      1 <0>        -0.1113
     14 C11        -1.5575    5.7544    2.0245 C.ar      1 <0>         0.0107
     15 Cl1        -0.7278    5.4405    0.5323 Cl        1 <0>        -0.0447
     16 H2         -0.7675    2.6825   -1.2255 H         1 <0>         0.0888
     17 H3         -0.2425    1.2411   -2.1283 H         1 <0>         0.0854
     18 H4         -1.7753    1.2154   -1.2238 H         1 <0>         0.1040
     19 H5         -1.0334   -0.3932    2.2117 H         1 <0>         0.2105
     20 H6         -2.8279    4.1471    4.7308 H         1 <0>         0.1379
     21 H7         -3.3903    6.4621    5.3407 H         1 <0>         0.1455
     22 H8         -2.7903    8.3160    3.8392 H         1 <0>         0.1462
     23 H9         -1.6235    7.8678    1.7209 H         1 <0>         0.1468
     24 H10         1.8599    1.2820   -0.8246 H         1 <0>         0.4388
     25 H11         1.3801    2.6007    0.0678 H         1 <0>         0.4392
     26 N2          1.3743    1.5833    0.0186 N.4       1 <0>        -0.6437
     27 H12         1.8621    1.2054    0.8393 H         1 <0>         0.4388
@<TRIPOS>BOND
     1    1    2 1
     2    1   16 1
     3    1   17 1
     4    1   18 1
     5    2    3 1
     6    2    4 1
     7    2   26 1
     8    4    8 1
     9    4    5 2
    10    5    6 1
    11    5   19 1
    12    6    7 1
    13    7    8 2
    14    7    9 1
    15    9   14 ar
    16    9   10 ar
    17   10   11 ar
    18   10   20 1
    19   11   12 ar
    20   11   21 1
    21   12   13 ar
    22   12   22 1
    23   13   14 ar
    24   13   23 1
    25   14   15 1
    26   24   26 1
    27   25   26 1
    28   26   27 1
@<TRIPOS>MOLECULE
ZINC40414563
   30    31     0     0     0
SMALL
USER_CHARGES

@<TRIPOS>ATOM
      1 C1         -0.0187    1.5258    0.0104 C.3       1 <0>        -0.1899
      2 C2          0.0021   -0.0041    0.0020 C.3       1 <0>        -0.0095
      3 N1          0.6897   -0.4778   -1.2066 N.4       1 <0>        -0.5088
      4 C3          0.7096   -1.9467   -1.2147 C.3       1 <0>         0.0779
      5 C4          1.4150   -2.4327   -2.4546 C.2       1 <0>        -0.0152
      6 C5          2.7376   -2.7435   -2.4078 C.2       1 <0>        -0.2054
      7 S1          3.0194   -3.2420   -4.1021 S.3       1 <0>         0.1398
      8 C6          1.3495   -2.9826   -4.6860 C.2       1 <0>         0.1610
      9 N2          0.7522   -2.5617   -3.5799 N.2       1 <0>        -0.5005
     10 C7          0.7854   -3.1877   -6.0372 C.ar      1 <0>        -0.0266
     11 C8         -0.5609   -2.9150   -6.2835 C.ar      1 <0>        -0.0552
     12 C9         -1.0811   -3.1084   -7.5464 C.ar      1 <0>        -0.1120
     13 C10        -0.2716   -3.5719   -8.5686 C.ar      1 <0>        -0.0737
     14 C11         1.0635   -3.8444   -8.3323 C.ar      1 <0>        -0.1027
     15 C12         1.5988   -3.6497   -7.0740 C.ar      1 <0>        -0.0187
     16 Cl1         3.2766   -3.9852   -6.7805 Cl        1 <0>        -0.0290
     17 H1          1.0039    1.9031    0.0027 H         1 <0>         0.0803
     18 H2         -0.5459    1.8868   -0.8726 H         1 <0>         0.0805
     19 H3         -0.5289    1.8773    0.9072 H         1 <0>         0.1079
     20 H4          0.5293   -0.3651    0.8851 H         1 <0>         0.1321
     21 H5         -1.0205   -0.3814    0.0098 H         1 <0>         0.1323
     22 H6          0.2017   -0.1436   -2.0240 H         1 <0>         0.4304
     23 H7          1.2368   -2.3077   -0.3316 H         1 <0>         0.1446
     24 H8         -0.3130   -2.3239   -1.2069 H         1 <0>         0.1436
     25 H9          3.4271   -2.7009   -1.5777 H         1 <0>         0.2062
     26 H10        -1.1943   -2.5535   -5.4869 H         1 <0>         0.1445
     27 H11        -2.1230   -2.8980   -7.7377 H         1 <0>         0.1444
     28 H12        -0.6845   -3.7219   -9.5552 H         1 <0>         0.1467
     29 H13         1.6899   -4.2059   -9.1344 H         1 <0>         0.1492
     30 H14         1.6363   -0.1286   -1.2138 H         1 <0>         0.4259
@<TRIPOS>BOND
     1    1    2 1
     2    1   17 1
     3    1   18 1
     4    1   19 1
     5    2    3 1
     6    2   20 1
     7    2   21 1
     8    3    4 1
     9    3   22 1
    10    3   30 1
    11    4    5 1
    12    4   23 1
    13    4   24 1
    14    5    9 1
    15    5    6 2
    16    6    7 1
    17    6   25 1
    18    7    8 1
    19    8    9 2
    20    8   10 1
    21   10   15 ar
    22   10   11 ar
    23   11   12 ar
    24   11   26 1
    25   12   13 ar
    26   12   27 1
    27   13   14 ar
    28   13   28 1
    29   14   15 ar
    30   14   29 1
    31   15   16 1
@<TRIPOS>MOLECULE
ZINC40414281
   33    34     0     0     0
SMALL
USER_CHARGES

@<TRIPOS>ATOM
      1 C1         -0.0187    1.5258    0.0104 C.3       1 <0>        -0.1843
      2 C2          0.0021   -0.0041    0.0020 C.3       1 <0>         0.0244
      3 C3          0.7421   -0.5109    1.2415 C.3       1 <0>        -0.1856
      4 N1         -1.3761   -0.5125    0.0124 N.4       1 <0>        -0.5067
      5 C4         -1.3591   -1.9758   -0.1163 C.3       1 <0>         0.0740
      6 C5         -2.7729   -2.4974   -0.1056 C.2       1 <0>        -0.0080
      7 C6         -3.4211   -2.7316   -1.2774 C.2       1 <0>        -0.1812
      8 S1         -4.9985   -3.3168   -0.6707 S.3       1 <0>         0.0990
      9 C7         -4.6233   -3.1860    1.0726 C.2       1 <0>         0.1802
     10 N2         -3.3786   -2.7315    1.0349 N.2       1 <0>        -0.5054
     11 C8         -5.4711   -3.5042    2.2414 C.ar      1 <0>        -0.0382
     12 C9         -4.9789   -3.3214    3.5344 C.ar      1 <0>        -0.0509
     13 C10        -5.7746   -3.6196    4.6210 C.ar      1 <0>        -0.1112
     14 C11        -7.0593   -4.0999    4.4307 C.ar      1 <0>        -0.0060
     15 C12        -7.5530   -4.2838    3.1501 C.ar      1 <0>        -0.1060
     16 C13        -6.7688   -3.9832    2.0559 C.ar      1 <0>        -0.0712
     17 Cl1        -8.0547   -4.4736    5.8030 Cl        1 <0>        -0.0434
     18 H1          1.0039    1.9031    0.0027 H         1 <0>         0.1080
     19 H2         -0.5459    1.8868   -0.8726 H         1 <0>         0.0815
     20 H3         -0.5289    1.8773    0.9072 H         1 <0>         0.0814
     21 H4          0.5123   -0.3556   -0.8948 H         1 <0>         0.1404
     22 H5          0.2319   -0.1594    2.1383 H         1 <0>         0.0825
     23 H6          0.7568   -1.6008    1.2356 H         1 <0>         0.0818
     24 H7          1.7647   -0.1336    1.2338 H         1 <0>         0.1068
     25 H8         -1.8225   -0.2564    0.8803 H         1 <0>         0.4290
     26 H9         -0.8769   -2.2525   -1.0538 H         1 <0>         0.1457
     27 H10        -0.8062   -2.4075    0.7180 H         1 <0>         0.1465
     28 H11        -3.0786   -2.6003   -2.2932 H         1 <0>         0.2110
     29 H12        -3.9768   -2.9475    3.6840 H         1 <0>         0.1443
     30 H13        -5.3947   -3.4785    5.6221 H         1 <0>         0.1476
     31 H14        -8.5555   -4.6594    3.0078 H         1 <0>         0.1493
     32 H15        -7.1565   -4.1225    1.0576 H         1 <0>         0.1385
     33 H16        -1.8879   -0.1129   -0.7598 H         1 <0>         0.4261
@<TRIPOS>BOND
     1    1    2 1
     2    1   18 1
     3    1   19 1
     4    1   20 1
     5    2    3 1
     6    2    4 1
     7    2   21 1
     8    3   22 1
     9    3   23 1
    10    3   24 1
    11    4    5 1
    12    4   25 1
    13    4   33 1
    14    5    6 1
    15    5   26 1
    16    5   27 1
    17    6   10 1
    18    6    7 2
    19    7    8 1
    20    7   28 1
    21    8    9 1
    22    9   10 2
    23    9   11 1
    24   11   16 ar
    25   11   12 ar
    26   12   13 ar
    27   12   29 1
    28   13   14 ar
    29   13   30 1
    30   14   15 ar
    31   14   17 1
    32   15   16 ar
    33   15   31 1
    34   16   32 1
@<TRIPOS>MOLECULE
ZINC11568389
   27    28     0     0     0
SMALL
USER_CHARGES
(1S)-1-[2-(2-chlorophenyl)thiazol-4-yl]ethanamine
@<TRIPOS>ATOM
      1 C1          4.2269   -4.8342   -1.2454 C.3       1 <0>        -0.1718
      2 C2          3.3333   -5.1927   -0.0563 C.3       1 <0>         0.1131
      3 H1          3.8945   -5.0698    0.8700 H         1 <0>         0.1542
      4 C3          2.1311   -4.2843   -0.0395 C.2       1 <0>         0.0344
      5 C4          0.8786   -4.8126   -0.0293 C.2       1 <0>        -0.2854
      6 S1         -0.1085   -3.3214   -0.0057 S.3       1 <0>         0.1484
      7 C5          1.2511   -2.1602   -0.0210 C.2       1 <0>         0.1743
      8 N1          2.2915   -2.9817   -0.0352 N.2       1 <0>        -0.4939
      9 C6          1.2227   -0.6820   -0.0133 C.ar      1 <0>        -0.0303
     10 C7          2.4158    0.0420   -0.0207 C.ar      1 <0>        -0.0514
     11 C8          2.3826    1.4210   -0.0130 C.ar      1 <0>        -0.1119
     12 C9          1.1699    2.0874    0.0021 C.ar      1 <0>        -0.0716
     13 C10        -0.0167    1.3770    0.0096 C.ar      1 <0>        -0.1036
     14 C11         0.0021   -0.0041    0.0020 C.ar      1 <0>        -0.0172
     15 Cl1        -1.4880   -0.8947    0.0109 Cl        1 <0>        -0.0298
     16 H2          4.5551   -3.7988   -1.1540 H         1 <0>         0.1141
     17 H3          5.0965   -5.4913   -1.2575 H         1 <0>         0.0867
     18 H4          3.6657   -4.9571   -2.1717 H         1 <0>         0.0797
     19 H5          0.5662   -5.8465   -0.0303 H         1 <0>         0.1943
     20 H6          3.3632   -0.4764   -0.0322 H         1 <0>         0.1467
     21 H7          3.3055    1.9820   -0.0192 H         1 <0>         0.1455
     22 H8          1.1500    3.1672    0.0077 H         1 <0>         0.1473
     23 H9         -0.9598    1.9032    0.0169 H         1 <0>         0.1496
     24 H10         2.3680   -6.7279   -1.0308 H         1 <0>         0.4367
     25 H11         3.6746   -7.2217   -0.1282 H         1 <0>         0.4450
     26 N2          2.8762   -6.5898   -0.1589 N.4       1 <0>        -0.6436
     27 H12         2.2525   -6.7996    0.6293 H         1 <0>         0.4405
@<TRIPOS>BOND
     1    1    2 1
     2    1   16 1
     3    1   17 1
     4    1   18 1
     5    2    3 1
     6    2    4 1
     7    2   26 1
     8    4    8 1
     9    4    5 2
    10    5    6 1
    11    5   19 1
    12    6    7 1
    13    7    8 2
    14    7    9 1
    15    9   14 ar
    16    9   10 ar
    17   10   11 ar
    18   10   20 1
    19   11   12 ar
    20   11   21 1
    21   12   13 ar
    22   12   22 1
    23   13   14 ar
    24   13   23 1
    25   14   15 1
    26   24   26 1
    27   25   26 1
    28   26   27 1
@<TRIPOS>MOLECULE
ZINC36893374
   21    22     0     0     0
SMALL
USER_CHARGES

@<TRIPOS>ATOM
      1 C1         -0.0168    1.3912    0.0097 C.ar      1 <0>        -0.0761
      2 C2          1.1698    2.0950    0.0021 C.ar      1 <0>        -0.0939
      3 C3          2.3782    1.4201   -0.0130 C.ar      1 <0>        -0.0156
      4 C4          2.4040    0.0343   -0.0212 C.ar      1 <0>        -0.0326
      5 C5          1.2229   -0.6801   -0.0142 C.ar      1 <0>        -0.0512
      6 C6          0.0021   -0.0041    0.0020 C.ar      1 <0>         0.0010
      7 C7         -1.2666   -0.7634    0.0105 C.2       1 <0>         0.1477
      8 N1         -1.4624   -2.0745    0.0109 N.2       1 <0>        -0.4788
      9 C8         -2.6723   -2.5828    0.0192 C.2       1 <0>         0.0394
     10 C9         -3.7533   -1.7585    0.0276 C.2       1 <0>        -0.1734
     11 S1         -2.9498   -0.1607    0.0311 S.3       1 <0>         0.0471
     12 C10        -2.8631   -4.0777    0.0188 C.3       1 <0>         0.0347
     13 Cl1        -2.9274   -4.6757    1.7185 Cl        1 <0>        -0.1640
     14 Cl2         3.9239   -0.8042   -0.0408 Cl        1 <0>        -0.0340
     15 Cl3         3.8672    2.3126   -0.0224 Cl        1 <0>        -0.0357
     16 H1         -0.9588    1.9192    0.0260 H         1 <0>         0.1443
     17 H2          1.1558    3.1749    0.0077 H         1 <0>         0.1542
     18 H3          1.2436   -1.7599   -0.0213 H         1 <0>         0.1567
     19 H4         -4.8057   -2.0012    0.0350 H         1 <0>         0.2063
     20 H5         -3.7954   -4.3248   -0.4889 H         1 <0>         0.1127
     21 H6         -2.0298   -4.5501   -0.5013 H         1 <0>         0.1113
@<TRIPOS>BOND
     1    1    6 ar
     2    1    2 ar
     3    1   16 1
     4    2    3 ar
     5    2   17 1
     6    3    4 ar
     7    3   15 1
     8    4    5 ar
     9    4   14 1
    10    5    6 ar
    11    5   18 1
    12    6    7 1
    13    7   11 1
    14    7    8 2
    15    8    9 1
    16    9   10 2
    17    9   12 1
    18   10   11 1
    19   10   19 1
    20   12   13 1
    21   12   20 1
    22   12   21 1
@<TRIPOS>MOLECULE
ZINC80801933
   30    31     0     0     0
SMALL
USER_CHARGES

@<TRIPOS>ATOM
      1 C1         -0.0187    1.5258    0.0104 C.3       1 <0>        -0.1804
      2 C2          0.0021   -0.0041    0.0020 C.3       1 <0>         0.1155
      3 H1          0.5123   -0.3556   -0.8948 H         1 <0>         0.1514
      4 C3         -1.4117   -0.5257    0.0127 C.2       1 <0>         0.0011
      5 C4         -2.0953   -0.6636   -1.1541 C.2       1 <0>        -0.1728
      6 S1         -3.6550   -1.2967   -0.5499 S.3       1 <0>         0.1128
      7 C5         -3.2274   -1.3086    1.1861 C.2       1 <0>         0.1767
      8 N1         -1.9832   -0.8526    1.1482 N.2       1 <0>        -0.5294
      9 C6         -4.0405   -1.7214    2.3500 C.ar      1 <0>        -0.0364
     10 C7         -3.5088   -1.6444    3.6383 C.ar      1 <0>        -0.0337
     11 C8         -4.2711   -2.0301    4.7209 C.ar      1 <0>        -0.1410
     12 C9         -5.5631   -2.4941    4.5320 C.ar      1 <0>         0.1471
     13 C10        -6.0966   -2.5732    3.2544 C.ar      1 <0>        -0.0753
     14 C11        -5.3439   -2.1837    2.1647 C.ar      1 <0>        -0.0492
     15 Cl1        -7.7158   -3.1560    3.0258 Cl        1 <0>        -0.0207
     16 F1         -6.3054   -2.8710    5.5960 F         1 <0>        -0.1103
     17 N2          0.7126   -0.4907    1.1921 N.4       1 <0>        -0.5007
     18 C12         2.1220   -0.0825    1.1220 C.3       1 <0>        -0.0523
     19 H2          1.0039    1.9031    0.0027 H         1 <0>         0.0903
     20 H3         -0.5459    1.8868   -0.8726 H         1 <0>         0.1067
     21 H4         -0.5289    1.8773    0.9072 H         1 <0>         0.0843
     22 H5         -1.7832   -0.4495   -2.1656 H         1 <0>         0.2117
     23 H6         -2.5017   -1.2837    3.7870 H         1 <0>         0.1492
     24 H7         -3.8602   -1.9708    5.7179 H         1 <0>         0.1601
     25 H8         -5.7615   -2.2410    1.1704 H         1 <0>         0.1498
     26 H9          0.2896   -0.0986    2.0201 H         1 <0>         0.4345
     27 H10         2.5788   -0.5061    0.2276 H         1 <0>         0.1245
     28 H11         2.1837    1.0050    1.0814 H         1 <0>         0.1258
     29 H12         2.6492   -0.4436    2.0051 H         1 <0>         0.1289
     30 H13         0.6554   -1.4974    1.2298 H         1 <0>         0.4317
@<TRIPOS>BOND
     1    1    2 1
     2    1   19 1
     3    1   20 1
     4    1   21 1
     5    2    3 1
     6    2    4 1
     7    2   17 1
     8    4    8 1
     9    4    5 2
    10    5    6 1
    11    5   22 1
    12    6    7 1
    13    7    8 2
    14    7    9 1
    15    9   14 ar
    16    9   10 ar
    17   10   11 ar
    18   10   23 1
    19   11   12 ar
    20   11   24 1
    21   12   13 ar
    22   12   16 1
    23   13   14 ar
    24   13   15 1
    25   14   25 1
    26   17   18 1
    27   17   26 1
    28   17   30 1
    29   18   27 1
    30   18   28 1
    31   18   29 1
@<TRIPOS>MOLECULE
ZINC80801931
   30    31     0     0     0
SMALL
USER_CHARGES

@<TRIPOS>ATOM
      1 C1         -0.0187    1.5258    0.0104 C.3       1 <0>        -0.1805
      2 C2          0.0021   -0.0041    0.0020 C.3       1 <0>         0.1155
      3 H1          0.5123   -0.3556   -0.8948 H         1 <0>         0.1515
      4 C3          0.7309   -0.5033    1.2229 C.2       1 <0>         0.0011
      5 C4          2.0859   -0.6103    1.2105 C.2       1 <0>        -0.1727
      6 S1          2.3833   -1.2290    2.8620 S.3       1 <0>         0.1129
      7 C5          0.6749   -1.2774    3.3872 C.2       1 <0>         0.1766
      8 N1          0.0588   -0.8304    2.3018 N.2       1 <0>        -0.5293
      9 C6          0.1036   -1.6973    4.6846 C.ar      1 <0>        -0.0364
     10 C7         -1.2772   -1.6629    4.8858 C.ar      1 <0>        -0.0337
     11 C8         -1.8055   -2.0559    6.0975 C.ar      1 <0>        -0.1410
     12 C9         -0.9684   -2.4844    7.1153 C.ar      1 <0>         0.1471
     13 C10         0.4043   -2.5203    6.9215 C.ar      1 <0>        -0.0753
     14 C11         0.9426   -2.1349    5.7102 C.ar      1 <0>        -0.0493
     15 Cl1         1.4466   -3.0577    8.2015 Cl        1 <0>        -0.0207
     16 F1         -1.4912   -2.8679    8.3005 F         1 <0>        -0.1103
     17 N2         -1.3761   -0.5125    0.0124 N.4       1 <0>        -0.5007
     18 C12        -2.0500   -0.1262   -1.2343 C.3       1 <0>        -0.0523
     19 H2          1.0039    1.9031    0.0027 H         1 <0>         0.1067
     20 H3         -0.5459    1.8868   -0.8726 H         1 <0>         0.0903
     21 H4         -0.5289    1.8773    0.9072 H         1 <0>         0.0843
     22 H5          2.7883   -0.3848    0.4217 H         1 <0>         0.2117
     23 H6         -1.9309   -1.3285    4.0937 H         1 <0>         0.1491
     24 H7         -2.8739   -2.0295    6.2537 H         1 <0>         0.1601
     25 H8          2.0113   -2.1676    5.5581 H         1 <0>         0.1498
     26 H9         -1.3629   -1.5185    0.0898 H         1 <0>         0.4317
     27 H10        -2.0643    0.9605   -1.3179 H         1 <0>         0.1258
     28 H11        -1.5132   -0.5489   -2.0836 H         1 <0>         0.1246
     29 H12        -3.0726   -0.5034   -1.2266 H         1 <0>         0.1289
     30 H13        -1.8730   -0.1212    0.7986 H         1 <0>         0.4345
@<TRIPOS>BOND
     1    1    2 1
     2    1   19 1
     3    1   20 1
     4    1   21 1
     5    2    3 1
     6    2    4 1
     7    2   17 1
     8    4    8 1
     9    4    5 2
    10    5    6 1
    11    5   22 1
    12    6    7 1
    13    7    8 2
    14    7    9 1
    15    9   14 ar
    16    9   10 ar
    17   10   11 ar
    18   10   23 1
    19   11   12 ar
    20   11   24 1
    21   12   13 ar
    22   12   16 1
    23   13   14 ar
    24   13   15 1
    25   14   25 1
    26   17   18 1
    27   17   26 1
    28   17   30 1
    29   18   27 1
    30   18   28 1
    31   18   29 1
@<TRIPOS>MOLECULE
ZINC80803420
   33    34     0     0     0
SMALL
USER_CHARGES

@<TRIPOS>ATOM
      1 C1         -0.0187    1.5258    0.0104 C.3       1 <0>        -0.1884
      2 C2          0.0021   -0.0041    0.0020 C.3       1 <0>        -0.0150
      3 N1         -1.3761   -0.5125    0.0124 N.4       1 <0>        -0.5014
      4 C3         -1.3562   -1.9814    0.0044 C.3       1 <0>         0.1165
      5 H1         -0.7538   -2.3412    0.8385 H         1 <0>         0.1516
      6 C4         -0.7522   -2.4760   -1.3115 C.3       1 <0>        -0.1802
      7 C5         -2.7634   -2.5036    0.1388 C.2       1 <0>         0.0014
      8 C6         -2.9840   -3.7400    0.6594 C.2       1 <0>        -0.1710
      9 S1         -4.7689   -3.8188    0.5774 S.3       1 <0>         0.1194
     10 C7         -5.0254   -2.2009   -0.1392 C.2       1 <0>         0.1716
     11 N2         -3.7782   -1.7636   -0.2413 N.2       1 <0>        -0.5257
     12 C8         -6.2889   -1.5294   -0.5127 C.ar      1 <0>        -0.0081
     13 C9         -6.2641   -0.2509   -1.0709 C.ar      1 <0>        -0.0583
     14 C10        -7.4472    0.3712   -1.4176 C.ar      1 <0>        -0.0260
     15 C11        -8.6563   -0.2713   -1.2123 C.ar      1 <0>        -0.0722
     16 C12        -8.6871   -1.5399   -0.6588 C.ar      1 <0>        -0.0202
     17 C13        -7.5101   -2.1742   -0.3134 C.ar      1 <0>        -0.0760
     18 Cl1       -10.2080   -2.3374   -0.4045 Cl        1 <0>        -0.0283
     19 Cl2        -7.4185    1.9621   -2.1117 Cl        1 <0>        -0.0335
     20 H2          1.0039    1.9031    0.0027 H         1 <0>         0.1078
     21 H3         -0.5459    1.8868   -0.8726 H         1 <0>         0.0811
     22 H4         -0.5289    1.8773    0.9072 H         1 <0>         0.0805
     23 H5          0.5123   -0.3556   -0.8948 H         1 <0>         0.1331
     24 H6          0.5293   -0.3651    0.8851 H         1 <0>         0.1316
     25 H7         -1.8484   -0.1871    0.8426 H         1 <0>         0.4293
     26 H8          0.2656   -2.0983   -1.4087 H         1 <0>         0.0900
     27 H9         -0.7374   -3.5659   -1.3175 H         1 <0>         0.1069
     28 H10        -1.3545   -2.1162   -2.1457 H         1 <0>         0.0844
     29 H11        -2.2773   -4.4720    1.0217 H         1 <0>         0.2127
     30 H12        -5.3215    0.2514   -1.2312 H         1 <0>         0.1493
     31 H13        -9.5791    0.2193   -1.4847 H         1 <0>         0.1578
     32 H14        -7.5351   -3.1658    0.1138 H         1 <0>         0.1470
     33 H15        -1.8641   -0.1783   -0.8050 H         1 <0>         0.4325
@<TRIPOS>BOND
     1    1    2 1
     2    1   20 1
     3    1   21 1
     4    1   22 1
     5    2    3 1
     6    2   23 1
     7    2   24 1
     8    3    4 1
     9    3   25 1
    10    3   33 1
    11    4    5 1
    12    4    6 1
    13    4    7 1
    14    6   26 1
    15    6   27 1
    16    6   28 1
    17    7   11 1
    18    7    8 2
    19    8    9 1
    20    8   29 1
    21    9   10 1
    22   10   11 2
    23   10   12 1
    24   12   17 ar
    25   12   13 ar
    26   13   14 ar
    27   13   30 1
    28   14   15 ar
    29   14   19 1
    30   15   16 ar
    31   15   31 1
    32   16   17 ar
    33   16   18 1
    34   17   32 1
@<TRIPOS>MOLECULE
ZINC83862482
   36    37     0     0     0
SMALL
USER_CHARGES

@<TRIPOS>ATOM
      1 C1         -0.0187    1.5258    0.0104 C.3       1 <0>        -0.1561
      2 C2          0.0021   -0.0041    0.0020 C.3       1 <0>        -0.1499
      3 C3          0.7421   -0.5109    1.2415 C.3       1 <0>        -0.0157
      4 N1          0.7620   -1.9797    1.2335 N.4       1 <0>        -0.5004
      5 C4          1.4725   -2.4664    2.4236 C.3       1 <0>         0.1170
      6 H1          1.0156   -2.0428    3.3180 H         1 <0>         0.1508
      7 C5          2.9404   -2.0413    2.3506 C.3       1 <0>        -0.1799
      8 C6          1.3871   -3.9699    2.4798 C.2       1 <0>         0.0021
      9 C7          1.4921   -4.6138    3.6727 C.2       1 <0>        -0.1751
     10 S1          1.3233   -6.3144    3.1455 S.3       1 <0>         0.1079
     11 C8          1.1320   -5.9829    1.3989 C.2       1 <0>         0.1795
     12 N2          1.2060   -4.6596    1.3782 N.2       1 <0>        -0.5305
     13 C9          0.9383   -6.9297    0.2797 C.ar      1 <0>        -0.0250
     14 C10         0.8154   -6.4544   -1.0268 C.ar      1 <0>        -0.0640
     15 C11         0.6348   -7.3424   -2.0670 C.ar      1 <0>        -0.1045
     16 C12         0.5753   -8.7020   -1.8179 C.ar      1 <0>        -0.0768
     17 C13         0.6964   -9.1805   -0.5245 C.ar      1 <0>        -0.0329
     18 C14         0.8833   -8.3020    0.5247 C.ar      1 <0>        -0.0788
     19 Cl1         0.6198  -10.8882   -0.2216 Cl        1 <0>        -0.0429
     20 H2          1.0039    1.9031    0.0027 H         1 <0>         0.0672
     21 H3         -0.5459    1.8868   -0.8726 H         1 <0>         0.0777
     22 H4         -0.5289    1.8773    0.9072 H         1 <0>         0.0671
     23 H5         -1.0205   -0.3814    0.0098 H         1 <0>         0.0860
     24 H6          0.5123   -0.3556   -0.8948 H         1 <0>         0.0865
     25 H7          1.7647   -0.1336    1.2338 H         1 <0>         0.1336
     26 H8          0.2319   -0.1594    2.1383 H         1 <0>         0.1319
     27 H9         -0.1846   -2.3290    1.2406 H         1 <0>         0.4293
     28 H10         3.3973   -2.4648    1.4561 H         1 <0>         0.0843
     29 H11         3.0022   -0.9538    2.3099 H         1 <0>         0.0895
     30 H12         3.4676   -2.4023    3.2336 H         1 <0>         0.1069
     31 H13         1.6376   -4.2102    4.6638 H         1 <0>         0.2111
     32 H14         0.8613   -5.3934   -1.2231 H         1 <0>         0.1382
     33 H15         0.5394   -6.9753   -3.0782 H         1 <0>         0.1468
     34 H16         0.4334   -9.3928   -2.6358 H         1 <0>         0.1471
     35 H17         0.9821   -8.6762    1.5330 H         1 <0>         0.1398
     36 H18         1.2343   -2.3051    0.4033 H         1 <0>         0.4325
@<TRIPOS>BOND
     1    1    2 1
     2    1   20 1
     3    1   21 1
     4    1   22 1
     5    2    3 1
     6    2   23 1
     7    2   24 1
     8    3    4 1
     9    3   25 1
    10    3   26 1
    11    4    5 1
    12    4   27 1
    13    4   36 1
    14    5    6 1
    15    5    7 1
    16    5    8 1
    17    7   28 1
    18    7   29 1
    19    7   30 1
    20    8   12 1
    21    8    9 2
    22    9   10 1
    23    9   31 1
    24   10   11 1
    25   11   12 2
    26   11   13 1
    27   13   18 ar
    28   13   14 ar
    29   14   15 ar
    30   14   32 1
    31   15   16 ar
    32   15   33 1
    33   16   17 ar
    34   16   34 1
    35   17   18 ar
    36   17   19 1
    37   18   35 1
@<TRIPOS>MOLECULE
ZINC80812107
   36    37     0     0     0
SMALL
USER_CHARGES

@<TRIPOS>ATOM
      1 C1         -0.0187    1.5258    0.0104 C.3       1 <0>        -0.1561
      2 C2          0.0021   -0.0041    0.0020 C.3       1 <0>        -0.1499
      3 C3          0.7421   -0.5109    1.2415 C.3       1 <0>        -0.0157
      4 N1          0.7620   -1.9797    1.2335 N.4       1 <0>        -0.5004
      5 C4          1.4725   -2.4664    2.4236 C.3       1 <0>         0.1170
      6 H1          2.4654   -2.0185    2.4624 H         1 <0>         0.1509
      7 C5          0.6888   -2.0791    3.6793 C.3       1 <0>        -0.1799
      8 C6          1.6004   -3.9663    2.3539 C.2       1 <0>         0.0020
      9 C7          2.6037   -4.5959    3.0214 C.2       1 <0>        -0.1750
     10 S1          2.2685   -6.2991    2.5907 S.3       1 <0>         0.1079
     11 C8          0.8328   -5.9873    1.5716 C.2       1 <0>         0.1793
     12 N2          0.7404   -4.6675    1.6534 N.2       1 <0>        -0.5304
     13 C9         -0.0238   -6.9445    0.8390 C.ar      1 <0>        -0.0249
     14 C10        -1.1059   -6.4835    0.0877 C.ar      1 <0>        -0.0641
     15 C11        -1.9017   -7.3810   -0.5936 C.ar      1 <0>        -0.1044
     16 C12        -1.6294   -8.7362   -0.5337 C.ar      1 <0>        -0.0769
     17 C13        -0.5577   -9.2005    0.2096 C.ar      1 <0>        -0.0329
     18 C14         0.2498   -8.3115    0.8914 C.ar      1 <0>        -0.0789
     19 Cl1        -0.2242  -10.9028    0.2792 Cl        1 <0>        -0.0429
     20 H2          1.0039    1.9031    0.0027 H         1 <0>         0.0671
     21 H3         -0.5459    1.8868   -0.8726 H         1 <0>         0.0777
     22 H4         -0.5289    1.8773    0.9072 H         1 <0>         0.0672
     23 H5         -1.0205   -0.3814    0.0098 H         1 <0>         0.0865
     24 H6          0.5123   -0.3556   -0.8948 H         1 <0>         0.0861
     25 H7          1.7647   -0.1336    1.2338 H         1 <0>         0.1319
     26 H8          0.2319   -0.1594    2.1383 H         1 <0>         0.1335
     27 H9         -0.1846   -2.3290    1.2406 H         1 <0>         0.4325
     28 H10        -0.3041   -2.5270    3.6404 H         1 <0>         0.0843
     29 H11         1.2160   -2.4402    4.5623 H         1 <0>         0.1069
     30 H12         0.5963   -0.9942    3.7296 H         1 <0>         0.0895
     31 H13         3.3865   -4.1821    3.6398 H         1 <0>         0.2111
     32 H14        -1.3201   -5.4260    0.0401 H         1 <0>         0.1382
     33 H15        -2.7394   -7.0251   -1.1749 H         1 <0>         0.1468
     34 H16        -2.2557   -9.4347   -1.0687 H         1 <0>         0.1471
     35 H17         1.0883   -8.6740    1.4675 H         1 <0>         0.1398
     36 H18         1.2343   -2.3051    0.4033 H         1 <0>         0.4293
@<TRIPOS>BOND
     1    1    2 1
     2    1   20 1
     3    1   21 1
     4    1   22 1
     5    2    3 1
     6    2   23 1
     7    2   24 1
     8    3    4 1
     9    3   25 1
    10    3   26 1
    11    4    5 1
    12    4   27 1
    13    4   36 1
    14    5    6 1
    15    5    7 1
    16    5    8 1
    17    7   28 1
    18    7   29 1
    19    7   30 1
    20    8   12 1
    21    8    9 2
    22    9   10 1
    23    9   31 1
    24   10   11 1
    25   11   12 2
    26   11   13 1
    27   13   18 ar
    28   13   14 ar
    29   14   15 ar
    30   14   32 1
    31   15   16 ar
    32   15   33 1
    33   16   17 ar
    34   16   34 1
    35   17   18 ar
    36   17   19 1
    37   18   35 1
@<TRIPOS>MOLECULE
ZINC80803416
   33    34     0     0     0
SMALL
USER_CHARGES

@<TRIPOS>ATOM
      1 C1         -0.0187    1.5258    0.0104 C.3       1 <0>        -0.1884
      2 C2          0.0021   -0.0041    0.0020 C.3       1 <0>        -0.0150
      3 N1         -1.3761   -0.5125    0.0124 N.4       1 <0>        -0.5014
      4 C3         -1.3562   -1.9814    0.0044 C.3       1 <0>         0.1166
      5 H1         -0.7699   -2.3321   -0.8450 H         1 <0>         0.1516
      6 C4         -0.7272   -2.4900    1.3031 C.3       1 <0>        -0.1803
      7 C5         -2.7657   -2.5023   -0.1088 C.2       1 <0>         0.0013
      8 C6         -2.9956   -3.7372   -0.6290 C.2       1 <0>        -0.1709
      9 S1         -4.7790   -3.8148   -0.5186 S.3       1 <0>         0.1196
     10 C7         -5.0228   -2.1986    0.2062 C.2       1 <0>         0.1715
     11 N2         -3.7729   -1.7669    0.2995 N.2       1 <0>        -0.5257
     12 C8         -6.2797   -1.5267    0.6003 C.ar      1 <0>        -0.0081
     13 C9         -6.2459   -0.2447    1.1502 C.ar      1 <0>        -0.0584
     14 C10        -7.4230    0.3778    1.5163 C.ar      1 <0>        -0.0260
     15 C11        -8.6348   -0.2676    1.3387 C.ar      1 <0>        -0.0722
     16 C12        -8.6746   -1.5396    0.7937 C.ar      1 <0>        -0.0202
     17 C13        -7.5045   -2.1698    0.4184 C.ar      1 <0>        -0.0761
     18 Cl1       -10.1988   -2.3413    0.5753 Cl        1 <0>        -0.0282
     19 Cl2        -7.3830    1.9725    2.2011 Cl        1 <0>        -0.0335
     20 H2          1.0039    1.9031    0.0027 H         1 <0>         0.1078
     21 H3         -0.5459    1.8868   -0.8726 H         1 <0>         0.0805
     22 H4         -0.5289    1.8773    0.9072 H         1 <0>         0.0811
     23 H5          0.5123   -0.3556   -0.8948 H         1 <0>         0.1316
     24 H6          0.5293   -0.3651    0.8851 H         1 <0>         0.1331
     25 H7         -1.8484   -0.1871    0.8426 H         1 <0>         0.4325
     26 H8         -0.7124   -3.5799    1.2971 H         1 <0>         0.1069
     27 H9          0.2923   -2.1133    1.3849 H         1 <0>         0.0901
     28 H10        -1.3135   -2.1393    2.1524 H         1 <0>         0.0844
     29 H11        -2.2954   -4.4684   -1.0050 H         1 <0>         0.2126
     30 H12        -5.3011    0.2596    1.2895 H         1 <0>         0.1492
     31 H13        -9.5528    0.2230    1.6269 H         1 <0>         0.1578
     32 H14        -7.5371   -3.1602   -0.0112 H         1 <0>         0.1470
     33 H15        -1.8641   -0.1783   -0.8050 H         1 <0>         0.4293
@<TRIPOS>BOND
     1    1    2 1
     2    1   20 1
     3    1   21 1
     4    1   22 1
     5    2    3 1
     6    2   23 1
     7    2   24 1
     8    3    4 1
     9    3   25 1
    10    3   33 1
    11    4    5 1
    12    4    6 1
    13    4    7 1
    14    6   26 1
    15    6   27 1
    16    6   28 1
    17    7   11 1
    18    7    8 2
    19    8    9 1
    20    8   29 1
    21    9   10 1
    22   10   11 2
    23   10   12 1
    24   12   17 ar
    25   12   13 ar
    26   13   14 ar
    27   13   30 1
    28   14   15 ar
    29   14   19 1
    30   15   16 ar
    31   15   31 1
    32   16   17 ar
    33   16   18 1
    34   17   32 1
@<TRIPOS>MOLECULE
ZINC85220202
   27    28     0     0     0
SMALL
USER_CHARGES

@<TRIPOS>ATOM
      1 C1         -0.0178    1.4648    0.0101 C.3       1 <0>        -0.0468
      2 N1          0.0021   -0.0041    0.0020 N.4       1 <0>        -0.5086
      3 C2         -1.3761   -0.5125    0.0124 C.3       1 <0>         0.0759
      4 C3         -1.3556   -2.0194    0.0042 C.2       1 <0>        -0.0203
      5 C4         -1.4429   -2.7079    1.1731 C.2       1 <0>        -0.2053
      6 S1         -1.3720   -4.3905    0.5710 S.3       1 <0>         0.1553
      7 C5         -1.2342   -3.9941   -1.1670 C.2       1 <0>         0.1435
      8 N2         -1.2590   -2.6692   -1.1319 N.2       1 <0>        -0.4904
      9 C6         -1.1264   -4.9002   -2.3304 C.ar      1 <0>         0.0120
     10 C7         -1.0209   -4.3760   -3.6194 C.ar      1 <0>        -0.0564
     11 C8         -0.9200   -5.2275   -4.7014 C.ar      1 <0>        -0.0216
     12 C9         -0.9239   -6.5991   -4.5096 C.ar      1 <0>        -0.0759
     13 C10        -1.0281   -7.1247   -3.2348 C.ar      1 <0>        -0.0668
     14 C11        -1.1238   -6.2838   -2.1436 C.ar      1 <0>        -0.0776
     15 Br1        -1.2590   -7.0048   -0.4007 Br        1 <0>         0.0140
     16 Cl1        -0.7887   -4.5776   -6.3058 Cl        1 <0>        -0.0344
     17 H1          1.0047    1.8421    0.0024 H         1 <0>         0.1273
     18 H2         -0.5450    1.8259   -0.8730 H         1 <0>         0.1250
     19 H3         -0.5280    1.8163    0.9069 H         1 <0>         0.1248
     20 H4          0.4744   -0.3295   -0.8281 H         1 <0>         0.4326
     21 H5         -1.8863   -0.1610    0.9092 H         1 <0>         0.1449
     22 H6         -1.9033   -0.1515   -0.8706 H         1 <0>         0.1436
     23 H7         -1.5305   -2.3407    2.1850 H         1 <0>         0.2051
     24 H8         -1.0185   -3.3065   -3.7702 H         1 <0>         0.1555
     25 H9         -0.8454   -7.2610   -5.3594 H         1 <0>         0.1576
     26 H10        -1.0309   -8.1952   -3.0920 H         1 <0>         0.1587
     27 H11         0.4901   -0.3383    0.8195 H         1 <0>         0.4282
@<TRIPOS>BOND
     1    1    2 1
     2    1   17 1
     3    1   18 1
     4    1   19 1
     5    2    3 1
     6    2   20 1
     7    2   27 1
     8    3    4 1
     9    3   21 1
    10    3   22 1
    11    4    8 1
    12    4    5 2
    13    5    6 1
    14    5   23 1
    15    6    7 1
    16    7    8 2
    17    7    9 1
    18    9   14 ar
    19    9   10 ar
    20   10   11 ar
    21   10   24 1
    22   11   12 ar
    23   11   16 1
    24   12   13 ar
    25   12   25 1
    26   13   14 ar
    27   13   26 1
    28   14   15 1
@<TRIPOS>MOLECULE
ZINC40999539
   27    28     0     0     0
SMALL
USER_CHARGES

@<TRIPOS>ATOM
      1 C1         -0.0167    1.3791    0.0096 C.ar      1 <0>        -0.1157
      2 C2          1.1670    2.0882    0.0021 C.ar      1 <0>        -0.0339
      3 C3          2.3847    1.4070   -0.0132 C.ar      1 <0>        -0.0393
      4 C4          2.3966    0.0114   -0.0208 C.ar      1 <0>        -0.0382
      5 C5          1.2062   -0.6856   -0.0132 C.ar      1 <0>        -0.1756
      6 C6          0.0021   -0.0041    0.0020 C.ar      1 <0>        -0.0369
      7 C7          1.2172   -2.1925   -0.0219 C.3       1 <0>         0.5088
      8 F1          1.2335   -2.6664    1.2943 F         1 <0>        -0.1698
      9 F2          0.0720   -2.6635   -0.6730 F         1 <0>        -0.1696
     10 F3          2.3564   -2.6467   -0.6951 F         1 <0>        -0.1739
     11 C8          3.6569    2.1605   -0.0218 C.2       1 <0>         0.1761
     12 N1          3.8589    3.4706   -0.0117 N.2       1 <0>        -0.5036
     13 C9          5.0710    3.9732   -0.0212 C.2       1 <0>        -0.0147
     14 C10         6.1482    3.1440   -0.0419 C.2       1 <0>        -0.1781
     15 S1          5.3373    1.5499   -0.0406 S.3       1 <0>         0.1074
     16 C11         5.2687    5.4672   -0.0098 C.3       1 <0>         0.0797
     17 N2          5.1966    5.9812   -1.3841 N.4       1 <0>        -0.6351
     18 H1         -0.9598    1.9051    0.0260 H         1 <0>         0.1514
     19 H2          1.1511    3.1680    0.0077 H         1 <0>         0.1457
     20 H3          3.3358   -0.5217   -0.0330 H         1 <0>         0.1419
     21 H4         -0.9272   -0.5544    0.0083 H         1 <0>         0.1504
     22 H5          7.2016    3.3819   -0.0526 H         1 <0>         0.2127
     23 H6          4.4890    5.9322    0.5934 H         1 <0>         0.1479
     24 H7          6.2449    5.7013    0.4149 H         1 <0>         0.1491
     25 H8          5.3289    6.9814   -1.3764 H         1 <0>         0.4410
     26 H9          5.9183    5.5507   -1.9425 H         1 <0>         0.4340
     27 H10         4.2929    5.7645   -1.7772 H         1 <0>         0.4383
@<TRIPOS>BOND
     1    1    6 ar
     2    1    2 ar
     3    1   18 1
     4    2    3 ar
     5    2   19 1
     6    3    4 ar
     7    3   11 1
     8    4    5 ar
     9    4   20 1
    10    5    6 ar
    11    5    7 1
    12    6   21 1
    13    7    8 1
    14    7    9 1
    15    7   10 1
    16   11   15 1
    17   11   12 2
    18   12   13 1
    19   13   14 2
    20   13   16 1
    21   14   15 1
    22   14   22 1
    23   16   17 1
    24   16   23 1
    25   16   24 1
    26   17   25 1
    27   17   26 1
    28   17   27 1
@<TRIPOS>MOLECULE
ZINC71532766
   24    25     0     0     0
SMALL
USER_CHARGES

@<TRIPOS>ATOM
      1 C1         -0.0167    1.3813    0.0096 C.ar      1 <0>        -0.0922
      2 C2          1.1679    2.0951    0.0022 C.ar      1 <0>        -0.1146
      3 C3          2.3789    1.4296   -0.0135 C.ar      1 <0>         0.1188
      4 C4          2.4048    0.0322   -0.0212 C.ar      1 <0>        -0.0402
      5 C5          1.2063   -0.6817   -0.0132 C.ar      1 <0>        -0.0779
      6 C6          0.0021   -0.0041    0.0020 C.ar      1 <0>         0.0981
      7 F1         -1.1595   -0.6939    0.0094 F         1 <0>        -0.1220
      8 C7          3.6967   -0.6862   -0.0384 C.2       1 <0>         0.1605
      9 N1          3.9341   -1.9905   -0.0533 N.2       1 <0>        -0.4987
     10 C8          5.1598   -2.4598   -0.0675 C.2       1 <0>        -0.0170
     11 C9          6.2138   -1.6015   -0.0671 C.2       1 <0>        -0.1875
     12 S1          5.3599   -0.0301   -0.0527 S.3       1 <0>         0.1431
     13 C10         5.3981   -3.9477   -0.0837 C.3       1 <0>         0.0799
     14 N2          5.3666   -4.4637    1.2913 N.4       1 <0>        -0.6351
     15 F2          3.5352    2.1283   -0.0216 F         1 <0>        -0.1191
     16 H1         -0.9605    1.9061    0.0260 H         1 <0>         0.1607
     17 H2          1.1464    3.1748    0.0082 H         1 <0>         0.1632
     18 H3          1.2196   -1.7616   -0.0195 H         1 <0>         0.1577
     19 H4          7.2734   -1.8106   -0.0774 H         1 <0>         0.2124
     20 H5          4.6200   -4.4339   -0.6721 H         1 <0>         0.1477
     21 H6          6.3719   -4.1549   -0.5273 H         1 <0>         0.1492
     22 H7          4.4651   -4.2719    1.7020 H         1 <0>         0.4383
     23 H8          5.5262   -5.4599    1.2805 H         1 <0>         0.4408
     24 H9          6.0869   -4.0136    1.8360 H         1 <0>         0.4339
@<TRIPOS>BOND
     1    1    6 ar
     2    1    2 ar
     3    1   16 1
     4    2    3 ar
     5    2   17 1
     6    3    4 ar
     7    3   15 1
     8    4    5 ar
     9    4    8 1
    10    5    6 ar
    11    5   18 1
    12    6    7 1
    13    8   12 1
    14    8    9 2
    15    9   10 1
    16   10   11 2
    17   10   13 1
    18   11   12 1
    19   11   19 1
    20   13   14 1
    21   13   20 1
    22   13   21 1
    23   14   22 1
    24   14   23 1
    25   14   24 1
@<TRIPOS>MOLECULE
ZINC42391181
   26    27     0     0     0
SMALL
USER_CHARGES

@<TRIPOS>ATOM
      1 C1         -0.0184    1.5028    0.0103 C.3       1 <0>        -0.1211
      2 C2          0.0021   -0.0041    0.0020 C.ar      1 <0>        -0.0620
      3 C3          0.0057   -0.6862   -1.2016 C.ar      1 <0>        -0.1194
      4 C4          0.0249   -2.0657   -1.2161 C.ar      1 <0>        -0.0847
      5 C5          0.0405   -2.7729   -0.0132 C.ar      1 <0>        -0.0288
      6 C6          0.0368   -2.0788    1.1974 C.ar      1 <0>        -0.0641
      7 C7          0.0229   -0.6992    1.1980 C.ar      1 <0>        -0.1221
      8 C8          0.0606   -4.2514   -0.0214 C.2       1 <0>         0.1639
      9 N1          0.0718   -5.0983    0.9984 N.2       1 <0>        -0.4995
     10 C9          0.0895   -6.3962    0.8061 C.2       1 <0>         0.0476
     11 C10         0.0966   -6.8936   -0.4593 C.2       1 <0>        -0.1696
     12 S1          0.0683   -5.3786   -1.4093 S.3       1 <0>         0.0272
     13 C11         0.1024   -7.3339    1.9857 C.3       1 <0>         0.1496
     14 N2          1.4811   -7.5244    2.4431 N.2       1 <0>        -0.4002
     15 N3          1.7698   -7.2400    3.4915 N.1       1 <0>         0.3019
     16 N4          2.0523   -6.9617    4.5175 N.1       1 <0>        -0.1693
     17 H1          1.0042    1.8801    0.0026 H         1 <0>         0.0762
     18 H2         -0.5455    1.8639   -0.8728 H         1 <0>         0.0707
     19 H3         -0.5286    1.8543    0.9071 H         1 <0>         0.0706
     20 H4         -0.0068   -0.1377   -2.1319 H         1 <0>         0.1326
     21 H5          0.0273   -2.5970   -2.1564 H         1 <0>         0.1280
     22 H6          0.0485   -2.6203    2.1317 H         1 <0>         0.1340
     23 H7          0.0244   -0.1607    2.1343 H         1 <0>         0.1318
     24 H8          0.1111   -7.9193   -0.7971 H         1 <0>         0.2060
     25 H9         -0.4931   -6.9093    2.7939 H         1 <0>         0.0800
     26 H10        -0.3185   -8.2951    1.6905 H         1 <0>         0.1205
@<TRIPOS>BOND
     1    1    2 1
     2    1   17 1
     3    1   18 1
     4    1   19 1
     5    2    7 ar
     6    2    3 ar
     7    3    4 ar
     8    3   20 1
     9    4    5 ar
    10    4   21 1
    11    5    6 ar
    12    5    8 1
    13    6    7 ar
    14    6   22 1
    15    7   23 1
    16    8   12 1
    17    8    9 2
    18    9   10 1
    19   10   11 2
    20   10   13 1
    21   11   12 1
    22   11   24 1
    23   13   14 1
    24   13   25 1
    25   13   26 1
    26   14   15 2
    27   15   16 2
@<TRIPOS>MOLECULE
ZINC40418830
   33    34     0     0     0
SMALL
USER_CHARGES

@<TRIPOS>ATOM
      1 C1         -0.0187    1.5258    0.0104 C.3       1 <0>        -0.1564
      2 C2          0.0021   -0.0041    0.0020 C.3       1 <0>        -0.1515
      3 C3          0.7182   -0.4975   -1.2568 C.3       1 <0>        -0.0102
      4 N1          0.7381   -1.9663   -1.2649 N.4       1 <0>        -0.5084
      5 C4          1.4257   -2.4401   -2.4735 C.3       1 <0>         0.0783
      6 C5          1.4462   -3.9469   -2.4818 C.2       1 <0>        -0.0087
      7 C6          0.4880   -4.6372   -3.1555 C.2       1 <0>        -0.1845
      8 S1          0.9999   -6.3189   -2.8260 S.3       1 <0>         0.0920
      9 C7          2.4300   -5.9199   -1.8298 C.2       1 <0>         0.1872
     10 N2          2.3918   -4.5949   -1.8432 N.2       1 <0>        -0.5101
     11 C8          3.3978   -6.8243   -1.1725 C.ar      1 <0>        -0.0444
     12 C9          4.4531   -6.2983   -0.4263 C.ar      1 <0>        -0.0635
     13 C10         5.3527   -7.1476    0.1844 C.ar      1 <0>        -0.1204
     14 C11         5.2104   -8.5179    0.0579 C.ar      1 <0>        -0.0827
     15 C12         4.1665   -9.0458   -0.6809 C.ar      1 <0>        -0.1148
     16 C13         3.2563   -8.2075   -1.2911 C.ar      1 <0>        -0.0840
     17 H1          1.0039    1.9031    0.0027 H         1 <0>         0.0676
     18 H2         -0.5459    1.8868   -0.8726 H         1 <0>         0.0674
     19 H3         -0.5289    1.8773    0.9072 H         1 <0>         0.0776
     20 H4          0.5293   -0.3651    0.8851 H         1 <0>         0.0863
     21 H5         -1.0205   -0.3814    0.0098 H         1 <0>         0.0861
     22 H6          0.1910   -0.1364   -2.1398 H         1 <0>         0.1330
     23 H7          1.7408   -0.1202   -1.2645 H         1 <0>         0.1331
     24 H8          1.2261   -2.3006   -0.4474 H         1 <0>         0.4311
     25 H9          0.8985   -2.0790   -3.3565 H         1 <0>         0.1456
     26 H10         2.4483   -2.0628   -2.4812 H         1 <0>         0.1448
     27 H11        -0.3501   -4.2714   -3.7301 H         1 <0>         0.2100
     28 H12         4.5657   -5.2287   -0.3274 H         1 <0>         0.1342
     29 H13         6.1700   -6.7418    0.7622 H         1 <0>         0.1366
     30 H14         5.9175   -9.1784    0.5376 H         1 <0>         0.1359
     31 H15         4.0612  -10.1164   -0.7762 H         1 <0>         0.1383
     32 H16         2.4389   -8.6209   -1.8632 H         1 <0>         0.1285
     33 H17        -0.2085   -2.3156   -1.2577 H         1 <0>         0.4261
@<TRIPOS>BOND
     1    1    2 1
     2    1   17 1
     3    1   18 1
     4    1   19 1
     5    2    3 1
     6    2   20 1
     7    2   21 1
     8    3    4 1
     9    3   22 1
    10    3   23 1
    11    4    5 1
    12    4   24 1
    13    4   33 1
    14    5    6 1
    15    5   25 1
    16    5   26 1
    17    6   10 1
    18    6    7 2
    19    7    8 1
    20    7   27 1
    21    8    9 1
    22    9   10 2
    23    9   11 1
    24   11   16 ar
    25   11   12 ar
    26   12   13 ar
    27   12   28 1
    28   13   14 ar
    29   13   29 1
    30   14   15 ar
    31   14   30 1
    32   15   16 ar
    33   15   31 1
    34   16   32 1
@<TRIPOS>MOLECULE
ZINC49670106
   30    31     0     0     0
SMALL
USER_CHARGES

@<TRIPOS>ATOM
      1 C1         -0.1703    1.4945    0.0998 C.3       1 <0>        -0.1214
      2 C2         -0.0700   -0.0081    0.0449 C.ar      1 <0>        -0.0831
      3 C3         -0.2092   -0.6656   -1.1647 C.ar      1 <0>        -0.0824
      4 C4         -0.1184   -2.0447   -1.2237 C.ar      1 <0>        -0.1155
      5 C5          0.1117   -2.7737   -0.0749 C.ar      1 <0>        -0.0419
      6 C6          0.2535   -2.1168    1.1478 C.ar      1 <0>        -0.0420
      7 C7          0.1661   -0.7248    1.1996 C.ar      1 <0>        -0.0803
      8 C8          0.4998   -2.8918    2.3829 C.2       1 <0>         0.1916
      9 N1          1.3584   -3.8781    2.6000 N.2       1 <0>        -0.4998
     10 C9          1.4452   -4.4601    3.7729 C.2       1 <0>        -0.0180
     11 C10         0.6441   -4.0519    4.7927 C.2       1 <0>        -0.1822
     12 S1         -0.2747   -2.7456    3.9878 S.3       1 <0>         0.0919
     13 C11         2.4309   -5.5794    3.9890 C.3       1 <0>         0.0796
     14 N2          1.8311   -6.8498    3.5599 N.4       1 <0>        -0.6351
     15 C12         0.2093   -4.2761   -0.1408 C.3       1 <0>        -0.1107
     16 H1          0.8178    1.9303   -0.0483 H         1 <0>         0.0777
     17 H2         -0.8422    1.8427   -0.6847 H         1 <0>         0.0749
     18 H3         -0.5590    1.7974    1.0720 H         1 <0>         0.0710
     19 H4         -0.3898   -0.0996   -2.0666 H         1 <0>         0.1354
     20 H5         -0.2284   -2.5519   -2.1708 H         1 <0>         0.1362
     21 H6          0.2790   -0.2102    2.1424 H         1 <0>         0.1296
     22 H7          0.5826   -4.4134    5.8085 H         1 <0>         0.2098
     23 H8          3.3318   -5.3877    3.4061 H         1 <0>         0.1471
     24 H9          2.6881   -5.6379    5.0466 H         1 <0>         0.1480
     25 H10         0.9972   -7.0272    4.0995 H         1 <0>         0.4337
     26 H11         1.5930   -6.7957    2.5809 H         1 <0>         0.4377
     27 H12         1.2564   -4.5691   -0.2177 H         1 <0>         0.0783
     28 H13        -0.2236   -4.7082    0.7613 H         1 <0>         0.0569
     29 H14        -0.3342   -4.6375   -1.0138 H         1 <0>         0.0728
     30 H15         2.4911   -7.5992    3.7046 H         1 <0>         0.4404
@<TRIPOS>BOND
     1    1    2 1
     2    1   16 1
     3    1   17 1
     4    1   18 1
     5    2    7 ar
     6    2    3 ar
     7    3    4 ar
     8    3   19 1
     9    4    5 ar
    10    4   20 1
    11    5    6 ar
    12    5   15 1
    13    6    7 ar
    14    6    8 1
    15    7   21 1
    16    8   12 1
    17    8    9 2
    18    9   10 1
    19   10   11 2
    20   10   13 1
    21   11   12 1
    22   11   22 1
    23   13   14 1
    24   13   23 1
    25   13   24 1
    26   14   25 1
    27   14   26 1
    28   14   30 1
    29   15   27 1
    30   15   28 1
    31   15   29 1
@<TRIPOS>MOLECULE
ZINC62606528
   33    34     0     0     0
SMALL
USER_CHARGES

@<TRIPOS>ATOM
      1 C1         -0.0187    1.5258    0.0104 C.3       1 <0>        -0.1859
      2 C2          0.0021   -0.0041    0.0020 C.3       1 <0>         0.0240
      3 C3          0.7182   -0.4975   -1.2568 C.3       1 <0>        -0.1843
      4 N1          0.7126   -0.4907    1.1921 N.4       1 <0>        -0.5066
      5 C4         -0.0398   -0.1189    2.3978 C.3       1 <0>         0.0753
      6 C5          0.6890   -0.6181    3.6187 C.2       1 <0>        -0.0112
      7 C6          1.5340    0.2069    4.2918 C.2       1 <0>        -0.1879
      8 S1          2.0886   -0.8826    5.5972 S.3       1 <0>         0.1351
      9 C7          1.1370   -2.3141    5.1052 C.2       1 <0>         0.1632
     10 N2          0.5048   -1.8485    4.0369 N.2       1 <0>        -0.4980
     11 C8          1.0697   -3.6543    5.7253 C.ar      1 <0>        -0.0567
     12 C9          0.2564   -4.6435    5.1702 C.ar      1 <0>        -0.0358
     13 C10         0.1974   -5.8923    5.7530 C.ar      1 <0>        -0.1133
     14 C11         0.9420   -6.1676    6.8865 C.ar      1 <0>        -0.0505
     15 C12         1.7512   -5.1934    7.4440 C.ar      1 <0>        -0.0735
     16 C13         1.8242   -3.9383    6.8664 C.ar      1 <0>         0.1358
     17 F1          2.6184   -2.9885    7.4072 F         1 <0>        -0.1119
     18 Cl1         2.6810   -5.5484    8.8664 Cl        1 <0>        -0.0226
     19 H1          1.0039    1.9031    0.0027 H         1 <0>         0.0823
     20 H2         -0.5459    1.8868   -0.8726 H         1 <0>         0.1074
     21 H3         -0.5289    1.8773    0.9072 H         1 <0>         0.0815
     22 H4         -1.0205   -0.3814    0.0098 H         1 <0>         0.1408
     23 H5          1.7408   -0.1202   -1.2645 H         1 <0>         0.0813
     24 H6          0.7330   -1.5874   -1.2628 H         1 <0>         0.0818
     25 H7          0.1910   -0.1364   -2.1398 H         1 <0>         0.1079
     26 H8          0.7982   -1.4950    1.1455 H         1 <0>         0.4308
     27 H9         -0.1324    0.9660    2.4481 H         1 <0>         0.1467
     28 H10        -1.0328   -0.5668    2.3589 H         1 <0>         0.1453
     29 H11         1.7977    1.2351    4.0931 H         1 <0>         0.2111
     30 H12        -0.3261   -4.4314    4.2859 H         1 <0>         0.1517
     31 H13        -0.4322   -6.6575    5.3236 H         1 <0>         0.1549
     32 H14         0.8912   -7.1473    7.3382 H         1 <0>         0.1572
     33 H15         1.6317   -0.0761    1.2281 H         1 <0>         0.4242
@<TRIPOS>BOND
     1    1    2 1
     2    1   19 1
     3    1   20 1
     4    1   21 1
     5    2    3 1
     6    2    4 1
     7    2   22 1
     8    3   23 1
     9    3   24 1
    10    3   25 1
    11    4    5 1
    12    4   26 1
    13    4   33 1
    14    5    6 1
    15    5   27 1
    16    5   28 1
    17    6   10 1
    18    6    7 2
    19    7    8 1
    20    7   29 1
    21    8    9 1
    22    9   10 2
    23    9   11 1
    24   11   16 ar
    25   11   12 ar
    26   12   13 ar
    27   12   30 1
    28   13   14 ar
    29   13   31 1
    30   14   15 ar
    31   14   32 1
    32   15   16 ar
    33   15   18 1
    34   16   17 1
@<TRIPOS>MOLECULE
ZINC86583963
   31    32     0     0     0
SMALL
USER_CHARGES

@<TRIPOS>ATOM
      1 C1         -0.0187    1.5258    0.0104 C.3       1 <0>        -0.1770
      2 C2          0.0021   -0.0041    0.0020 C.3       1 <0>         0.1173
      3 H1          0.5123   -0.3556   -0.8948 H         1 <0>         0.1531
      4 C3         -1.4117   -0.5257    0.0127 C.2       1 <0>        -0.0063
      5 C4         -1.8244   -1.3931   -0.9487 C.2       1 <0>        -0.1782
      6 S1         -3.5208   -1.6582   -0.4481 S.3       1 <0>         0.0959
      7 C5         -3.4953   -0.5875    0.9836 C.2       1 <0>         0.1910
      8 N1         -2.2450   -0.1471    0.9539 N.2       1 <0>        -0.5174
      9 C6         -4.5757   -0.2797    1.9443 C.ar      1 <0>        -0.0716
     10 C7         -4.3416    0.6004    3.0024 C.ar      1 <0>        -0.0156
     11 C8         -5.3515    0.8856    3.8962 C.ar      1 <0>        -0.2018
     12 C9         -6.6007    0.2985    3.7460 C.ar      1 <0>         0.1771
     13 C10        -6.8383   -0.5781    2.6944 C.ar      1 <0>        -0.0722
     14 C11        -5.8343   -0.8639    1.7925 C.ar      1 <0>        -0.0365
     15 Cl1        -8.4020   -1.3097    2.5117 Cl        1 <0>        -0.0299
     16 O1         -7.5933    0.5816    4.6297 O.3       1 <0>        -0.2942
     17 C12        -7.2806    1.4905    5.6872 C.3       1 <0>         0.0197
     18 N2          0.7126   -0.4907    1.1921 N.4       1 <0>        -0.6341
     19 H2          1.0039    1.9031    0.0027 H         1 <0>         0.0861
     20 H3         -0.5459    1.8868   -0.8726 H         1 <0>         0.1037
     21 H4         -0.5289    1.8773    0.9072 H         1 <0>         0.0897
     22 H5         -1.2791   -1.8072   -1.7839 H         1 <0>         0.2103
     23 H6         -3.3701    1.0572    3.1207 H         1 <0>         0.1435
     24 H7         -5.1706    1.5665    4.7148 H         1 <0>         0.1512
     25 H8         -6.0205   -1.5419    0.9727 H         1 <0>         0.1457
     26 H9         -6.4634    1.0860    6.2843 H         1 <0>         0.0638
     27 H10        -6.9819    2.4500    5.2651 H         1 <0>         0.0642
     28 H11        -8.1582    1.6288    6.3187 H         1 <0>         0.1128
     29 H12         0.2403   -0.1653    2.0223 H         1 <0>         0.4378
     30 H13         0.7262   -1.4996    1.1866 H         1 <0>         0.4348
     31 H14         1.6592   -0.1415    1.1850 H         1 <0>         0.4373
@<TRIPOS>BOND
     1    1    2 1
     2    1   19 1
     3    1   20 1
     4    1   21 1
     5    2    3 1
     6    2    4 1
     7    2   18 1
     8    4    8 1
     9    4    5 2
    10    5    6 1
    11    5   22 1
    12    6    7 1
    13    7    8 2
    14    7    9 1
    15    9   14 ar
    16    9   10 ar
    17   10   11 ar
    18   10   23 1
    19   11   12 ar
    20   11   24 1
    21   12   13 ar
    22   12   16 1
    23   13   14 ar
    24   13   15 1
    25   14   25 1
    26   16   17 1
    27   17   26 1
    28   17   27 1
    29   17   28 1
    30   18   29 1
    31   18   30 1
    32   18   31 1
@<TRIPOS>MOLECULE
ZINC86583962
   31    32     0     0     0
SMALL
USER_CHARGES

@<TRIPOS>ATOM
      1 C1         -0.0187    1.5258    0.0104 C.3       1 <0>        -0.1747
      2 C2          0.0021   -0.0041    0.0020 C.3       1 <0>         0.1095
      3 H1          0.5123   -0.3556   -0.8948 H         1 <0>         0.1576
      4 C3          0.7309   -0.5033    1.2229 C.2       1 <0>         0.0425
      5 C4          0.1265   -1.3832    2.0640 C.2       1 <0>        -0.2637
      6 S1          1.4143   -1.6118    3.2838 S.3       1 <0>         0.1025
      7 C5          2.6143   -0.5132    2.5422 C.2       1 <0>         0.2049
      8 N1          1.9528   -0.0931    1.4727 N.2       1 <0>        -0.5041
      9 C6          3.9783   -0.1695    2.9965 C.ar      1 <0>        -0.0759
     10 C7          4.7553    0.7279    2.2617 C.ar      1 <0>        -0.0107
     11 C8          6.0267    1.0466    2.6884 C.ar      1 <0>        -0.2019
     12 C9          6.5357    0.4761    3.8475 C.ar      1 <0>         0.1794
     13 C10         5.7659   -0.4176    4.5821 C.ar      1 <0>        -0.0736
     14 C11         4.4905   -0.7369    4.1644 C.ar      1 <0>        -0.0347
     15 Cl1         6.4076   -1.1282    6.0302 Cl        1 <0>        -0.0305
     16 O1          7.7897    0.7922    4.2642 O.3       1 <0>        -0.2941
     17 C12         8.5262    1.7171    3.4616 C.3       1 <0>         0.0193
     18 N2         -1.3761   -0.5125    0.0124 N.4       1 <0>        -0.6350
     19 H2          1.0039    1.9031    0.0027 H         1 <0>         0.1148
     20 H3         -0.5459    1.8868   -0.8726 H         1 <0>         0.0879
     21 H4         -0.5289    1.8773    0.9072 H         1 <0>         0.0807
     22 H5         -0.8587   -1.8224    2.0107 H         1 <0>         0.1978
     23 H6          4.3608    1.1717    1.3596 H         1 <0>         0.1467
     24 H7          6.6280    1.7408    2.1201 H         1 <0>         0.1523
     25 H8          3.8908   -1.4281    4.7379 H         1 <0>         0.1454
     26 H9          8.6450    1.3119    2.4567 H         1 <0>         0.0645
     27 H10         7.9874    2.6633    3.4105 H         1 <0>         0.0645
     28 H11         9.5081    1.8817    3.9054 H         1 <0>         0.1128
     29 H12        -1.8641   -0.1783   -0.8050 H         1 <0>         0.4438
     30 H13        -1.3624   -1.5214    0.0069 H         1 <0>         0.4369
     31 H14        -1.8484   -0.1871    0.8426 H         1 <0>         0.4352
@<TRIPOS>BOND
     1    1    2 1
     2    1   19 1
     3    1   20 1
     4    1   21 1
     5    2    3 1
     6    2    4 1
     7    2   18 1
     8    4    8 1
     9    4    5 2
    10    5    6 1
    11    5   22 1
    12    6    7 1
    13    7    8 2
    14    7    9 1
    15    9   14 ar
    16    9   10 ar
    17   10   11 ar
    18   10   23 1
    19   11   12 ar
    20   11   24 1
    21   12   13 ar
    22   12   16 1
    23   13   14 ar
    24   13   15 1
    25   14   25 1
    26   16   17 1
    27   17   26 1
    28   17   27 1
    29   17   28 1
    30   18   29 1
    31   18   30 1
    32   18   31 1
@<TRIPOS>MOLECULE
ZINC78975656
   28    29     0     0     0
SMALL
USER_CHARGES

@<TRIPOS>ATOM
      1 C1         -0.0187    1.5258    0.0104 C.3       1 <0>        -0.1657
      2 C2          0.0021   -0.0041    0.0020 C.3       1 <0>         0.1122
      3 N1         -1.3723   -0.5112    0.0124 N.am      1 <0>        -0.7139
      4 C3         -1.6006   -1.8394    0.0075 C.2       1 <0>         0.5895
      5 O1         -0.6655   -2.6171   -0.0056 O.2       1 <0>        -0.5352
      6 C4         -2.9826   -2.3493    0.0179 C.2       1 <0>        -0.0141
      7 C5         -3.2254   -3.6975    0.0182 C.2       1 <0>        -0.1944
      8 S1         -4.9071   -3.7641    0.0323 S.3       1 <0>         0.1850
      9 C6         -5.2309   -2.0096    0.0373 C.2       1 <0>         0.1034
     10 N2         -4.0086   -1.5098    0.0327 N.2       1 <0>        -0.4543
     11 C7         -6.5290   -1.3004    0.0487 C.ar      1 <0>         0.0003
     12 C8         -6.5651    0.0946    0.0446 C.ar      1 <0>        -0.0689
     13 C9         -7.7786    0.7508    0.0553 C.ar      1 <0>        -0.1036
     14 C10        -8.9588    0.0291    0.0702 C.ar      1 <0>        -0.0915
     15 C11        -8.9304   -1.3550    0.0743 C.ar      1 <0>        -0.0325
     16 C12        -7.7218   -2.0233    0.0579 C.ar      1 <0>        -0.0883
     17 Cl1       -10.4165   -2.2521    0.0930 Cl        1 <0>        -0.0565
     18 H1          1.0039    1.9031    0.0027 H         1 <0>         0.0766
     19 H2         -0.5459    1.8868   -0.8726 H         1 <0>         0.0628
     20 H3         -0.5289    1.8773    0.9072 H         1 <0>         0.0628
     21 H4          0.5123   -0.3556   -0.8948 H         1 <0>         0.0699
     22 H5          0.5293   -0.3651    0.8851 H         1 <0>         0.0698
     23 H6         -2.1181    0.1091    0.0229 H         1 <0>         0.4097
     24 H7         -2.5164   -4.5122    0.0112 H         1 <0>         0.2121
     25 H8         -5.6447    0.6595    0.0333 H         1 <0>         0.1421
     26 H9         -7.8073    1.8304    0.0525 H         1 <0>         0.1429
     27 H10        -9.9062    0.5476    0.0789 H         1 <0>         0.1411
     28 H11        -7.7004   -3.1031    0.0563 H         1 <0>         0.1386
@<TRIPOS>BOND
     1    1    2 1
     2    1   18 1
     3    1   19 1
     4    1   20 1
     5    2    3 1
     6    2   21 1
     7    2   22 1
     8    3    4 am
     9    3   23 1
    10    4    5 2
    11    4    6 1
    12    6   10 1
    13    6    7 2
    14    7    8 1
    15    7   24 1
    16    8    9 1
    17    9   10 2
    18    9   11 1
    19   11   16 ar
    20   11   12 ar
    21   12   13 ar
    22   12   25 1
    23   13   14 ar
    24   13   26 1
    25   14   15 ar
    26   14   27 1
    27   15   16 ar
    28   15   17 1
    29   16   28 1
@<TRIPOS>MOLECULE
ZINC41010171
   31    33     0     0     0
SMALL
USER_CHARGES

@<TRIPOS>ATOM
      1 C1         -0.0167    1.3790    0.0096 C.ar      1 <0>        -0.0952
      2 C2          1.1665    2.0890    0.0021 C.ar      1 <0>        -0.0725
      3 C3          2.3851    1.4095   -0.0131 C.ar      1 <0>        -0.0179
      4 C4          2.3990    0.0130   -0.0207 C.ar      1 <0>         0.0096
      5 C5          1.2069   -0.6860   -0.0131 C.ar      1 <0>        -0.0365
      6 C6          0.0021   -0.0041    0.0020 C.ar      1 <0>        -0.0672
      7 Cl1         1.2201   -2.4219   -0.0224 Cl        1 <0>        -0.0269
      8 Cl2         3.9095   -0.8424   -0.0402 Cl        1 <0>        -0.0181
      9 C7          3.6562    2.1646   -0.0217 C.2       1 <0>         0.1672
     10 N1          4.9026    1.7136   -0.0415 N.2       1 <0>        -0.4832
     11 C8          5.9249    2.5366   -0.0467 C.2       1 <0>        -0.0121
     12 C9          5.7137    3.8794   -0.0317 C.2       1 <0>        -0.1749
     13 S1          3.9261    3.9321   -0.0160 S.3       1 <0>         0.1093
     14 C10         7.3306    1.9939   -0.0689 C.3       1 <0>         0.0827
     15 N2          7.7607    1.6920    1.3029 N.4       1 <0>        -0.4788
     16 C11         9.1309    1.1630    1.2813 C.3       1 <0>        -0.0840
     17 C12         9.3406   -0.2750    1.7601 C.3       1 <0>        -0.1539
     18 C13         9.8064    0.8959    2.6279 C.3       1 <0>        -0.1533
     19 H1         -0.9600    1.9047    0.0260 H         1 <0>         0.1555
     20 H2          1.1494    3.1688    0.0077 H         1 <0>         0.1444
     21 H3         -0.9272   -0.5544    0.0079 H         1 <0>         0.1559
     22 H4          6.4276    4.6899   -0.0327 H         1 <0>         0.2121
     23 H5          7.3591    1.0832   -0.6673 H         1 <0>         0.1452
     24 H6          7.9998    2.7359   -0.5045 H         1 <0>         0.1466
     25 H7          7.7343    2.5350    1.8568 H         1 <0>         0.4267
     26 H8          9.7594    1.5186    0.4648 H         1 <0>         0.1797
     27 H9          8.4619   -0.8284    2.0911 H         1 <0>         0.1207
     28 H10        10.1071   -0.8657    1.2585 H         1 <0>         0.1346
     29 H11        10.8793    1.0754    2.6972 H         1 <0>         0.1351
     30 H12         9.2341    1.1127    3.5299 H         1 <0>         0.1204
     31 H13         7.1413    1.0051    1.7061 H         1 <0>         0.4287
@<TRIPOS>BOND
     1    1    6 ar
     2    1    2 ar
     3    1   19 1
     4    2    3 ar
     5    2   20 1
     6    3    4 ar
     7    3    9 1
     8    4    5 ar
     9    4    8 1
    10    5    6 ar
    11    5    7 1
    12    6   21 1
    13    9   13 1
    14    9   10 2
    15   10   11 1
    16   11   12 2
    17   11   14 1
    18   12   13 1
    19   12   22 1
    20   14   15 1
    21   14   23 1
    22   14   24 1
    23   15   16 1
    24   15   25 1
    25   15   31 1
    26   16   18 1
    27   16   17 1
    28   16   26 1
    29   17   18 1
    30   17   27 1
    31   17   28 1
    32   18   29 1
    33   18   30 1
@<TRIPOS>MOLECULE
ZINC52859453
   33    34     0     0     0
SMALL
USER_CHARGES

@<TRIPOS>ATOM
      1 C1         -0.0187    1.5258    0.0104 C.3       1 <0>        -0.1565
      2 C2          0.0021   -0.0041    0.0020 C.3       1 <0>        -0.1516
      3 C3          0.7182   -0.4975   -1.2568 C.3       1 <0>        -0.0103
      4 N1          0.7381   -1.9663   -1.2649 N.4       1 <0>        -0.5087
      5 C4          1.4257   -2.4401   -2.4735 C.3       1 <0>         0.0784
      6 C5          1.4462   -3.9469   -2.4818 C.2       1 <0>        -0.0123
      7 C6          0.4883   -4.6370   -3.1554 C.2       1 <0>        -0.1873
      8 S1          1.0003   -6.3188   -2.8267 S.3       1 <0>         0.1374
      9 C7          2.4306   -5.9202   -1.8305 C.2       1 <0>         0.1625
     10 N2          2.3921   -4.5950   -1.8430 N.2       1 <0>        -0.4986
     11 C8          3.3985   -6.8246   -1.1743 C.ar      1 <0>        -0.0564
     12 C9          4.4540   -6.2990   -0.4280 C.ar      1 <0>        -0.0324
     13 C10         5.3545   -7.1489    0.1823 C.ar      1 <0>        -0.0499
     14 C11         5.2130   -8.5208    0.0551 C.ar      1 <0>        -0.0489
     15 C12         4.1698   -9.0491   -0.6827 C.ar      1 <0>        -0.1319
     16 C13         3.2573   -8.2096   -1.2939 C.ar      1 <0>         0.1335
     17 F1          2.2351   -8.7269   -2.0100 F         1 <0>        -0.1185
     18 Cl1         6.6680   -6.4965    1.1111 Cl        1 <0>        -0.0372
     19 H1          1.0039    1.9031    0.0027 H         1 <0>         0.0677
     20 H2         -0.5459    1.8868   -0.8726 H         1 <0>         0.0675
     21 H3         -0.5289    1.8773    0.9072 H         1 <0>         0.0777
     22 H4          0.5293   -0.3651    0.8851 H         1 <0>         0.0864
     23 H5         -1.0205   -0.3814    0.0098 H         1 <0>         0.0861
     24 H6          0.1910   -0.1364   -2.1398 H         1 <0>         0.1332
     25 H7          1.7408   -0.1202   -1.2645 H         1 <0>         0.1334
     26 H8          1.2261   -2.3006   -0.4474 H         1 <0>         0.4311
     27 H9          0.8985   -2.0790   -3.3565 H         1 <0>         0.1465
     28 H10         2.4483   -2.0628   -2.4812 H         1 <0>         0.1455
     29 H11        -0.3498   -4.2711   -3.7300 H         1 <0>         0.2117
     30 H12         4.5663   -5.2295   -0.3283 H         1 <0>         0.1555
     31 H13         5.9209   -9.1809    0.5341 H         1 <0>         0.1580
     32 H14         4.0651  -10.1198   -0.7780 H         1 <0>         0.1622
     33 H15        -0.2085   -2.3156   -1.2577 H         1 <0>         0.4263
@<TRIPOS>BOND
     1    1    2 1
     2    1   19 1
     3    1   20 1
     4    1   21 1
     5    2    3 1
     6    2   22 1
     7    2   23 1
     8    3    4 1
     9    3   24 1
    10    3   25 1
    11    4    5 1
    12    4   26 1
    13    4   33 1
    14    5    6 1
    15    5   27 1
    16    5   28 1
    17    6   10 1
    18    6    7 2
    19    7    8 1
    20    7   29 1
    21    8    9 1
    22    9   10 2
    23    9   11 1
    24   11   16 ar
    25   11   12 ar
    26   12   13 ar
    27   12   30 1
    28   13   14 ar
    29   13   18 1
    30   14   15 ar
    31   14   31 1
    32   15   16 ar
    33   15   32 1
    34   16   17 1
@<TRIPOS>MOLECULE
ZINC53720919
   26    27     0     0     0
SMALL
USER_CHARGES

@<TRIPOS>ATOM
      1 C1         -0.0173    1.4248    0.0099 C.3       1 <0>        -0.0011
      2 O1          0.0021   -0.0041    0.0020 O.3       1 <0>        -0.1433
      3 N1          0.6673   -0.5772    1.1129 N.am      1 <0>        -0.5836
      4 C2          0.7571   -1.9171    1.2269 C.2       1 <0>         0.6041
      5 O2          0.2667   -2.6340    0.3755 O.2       1 <0>        -0.5151
      6 C3          1.4491   -2.5133    2.3826 C.2       1 <0>        -0.0045
      7 C4          1.5504   -3.8739    2.5052 C.2       1 <0>        -0.1892
      8 S1          2.4020   -4.0467    3.9466 S.3       1 <0>         0.1973
      9 C5          2.5946   -2.3165    4.3371 C.2       1 <0>         0.1059
     10 N2          1.9873   -1.7404    3.3157 N.2       1 <0>        -0.4597
     11 C6          3.2639   -1.6910    5.4984 C.ar      1 <0>        -0.0009
     12 C7          3.2994   -0.3014    5.6217 C.ar      1 <0>        -0.0688
     13 C8          3.9250    0.2766    6.7069 C.ar      1 <0>        -0.1036
     14 C9          4.5168   -0.5180    7.6725 C.ar      1 <0>        -0.0905
     15 C10         4.4854   -1.8972    7.5566 C.ar      1 <0>        -0.0325
     16 C11         3.8570   -2.4878    6.4776 C.ar      1 <0>        -0.0874
     17 Cl1         5.2307   -2.8863    8.7731 Cl        1 <0>        -0.0557
     18 H1          1.0053    1.8021    0.0021 H         1 <0>         0.0580
     19 H2         -0.5445    1.7859   -0.8732 H         1 <0>         0.1156
     20 H3         -0.5275    1.7763    0.9067 H         1 <0>         0.0580
     21 H4          1.0584   -0.0054    1.7919 H         1 <0>         0.4165
     22 H5          1.1777   -4.6420    1.8437 H         1 <0>         0.2153
     23 H6          2.8382    0.3204    4.8687 H         1 <0>         0.1417
     24 H7          3.9532    1.3520    6.8028 H         1 <0>         0.1431
     25 H8          5.0056   -0.0606    8.5199 H         1 <0>         0.1414
     26 H9          3.8287   -3.5638    6.3902 H         1 <0>         0.1392
@<TRIPOS>BOND
     1    1    2 1
     2    1   18 1
     3    1   19 1
     4    1   20 1
     5    2    3 1
     6    3    4 am
     7    3   21 1
     8    4    5 2
     9    4    6 1
    10    6   10 1
    11    6    7 2
    12    7    8 1
    13    7   22 1
    14    8    9 1
    15    9   10 2
    16    9   11 1
    17   11   16 ar
    18   11   12 ar
    19   12   13 ar
    20   12   23 1
    21   13   14 ar
    22   13   24 1
    23   14   15 ar
    24   14   25 1
    25   15   16 ar
    26   15   17 1
    27   16   26 1
@<TRIPOS>MOLECULE
ZINC00166367
   28    30     0     0     0
SMALL
USER_CHARGES
2-(3-chloro-4-fluoro-phenyl)-4-(4-fluorophenyl)-thiazole
@<TRIPOS>ATOM
      1 C1          4.5674    1.4687   -0.0395 C.ar      1 <0>        -0.0747
      2 C2          5.9176    1.1842   -0.0491 C.ar      1 <0>        -0.1528
      3 C3          6.3501   -0.1320   -0.0588 C.ar      1 <0>         0.1071
      4 C4          5.4302   -1.1678   -0.0546 C.ar      1 <0>        -0.1548
      5 C5          4.0782   -0.8926   -0.0402 C.ar      1 <0>        -0.0558
      6 C6          3.6385    0.4299   -0.0299 C.ar      1 <0>        -0.0400
      7 C7          2.1858    0.7309   -0.0149 C.2       1 <0>         0.1024
      8 C8          1.7489    2.0298   -0.0037 C.2       1 <0>        -0.1883
      9 S1         -0.0222    1.7833    0.0118 S.3       1 <0>         0.0425
     10 C9          0.0021   -0.0041    0.0020 C.2       1 <0>         0.1537
     11 N1          1.3026   -0.2499   -0.0117 N.2       1 <0>        -0.4854
     12 C10        -1.1299   -0.9552    0.0073 C.ar      1 <0>        -0.0150
     13 C11        -2.4427   -0.4812    0.0224 C.ar      1 <0>        -0.0578
     14 C12        -3.4954   -1.3721    0.0268 C.ar      1 <0>        -0.1368
     15 C13        -3.2521   -2.7363    0.0167 C.ar      1 <0>         0.1314
     16 C14        -1.9500   -3.2131    0.0017 C.ar      1 <0>        -0.0767
     17 C15        -0.8895   -2.3296   -0.0086 C.ar      1 <0>        -0.0345
     18 Cl1        -1.6534   -4.9236   -0.0115 Cl        1 <0>        -0.0344
     19 F1         -4.2871   -3.6047    0.0220 F         1 <0>        -0.1181
     20 F2          7.6729   -0.4060   -0.0730 F         1 <0>        -0.1365
     21 H1          4.2311    2.4950   -0.0361 H         1 <0>         0.1355
     22 H2          6.6382    1.9886   -0.0524 H         1 <0>         0.1409
     23 H3          5.7718   -2.1924   -0.0630 H         1 <0>         0.1401
     24 H4          3.3617   -1.7007   -0.0373 H         1 <0>         0.1432
     25 H5          2.3171    2.9482   -0.0045 H         1 <0>         0.2047
     26 H6         -2.6338    0.5817    0.0303 H         1 <0>         0.1457
     27 H7         -4.5113   -1.0059    0.0385 H         1 <0>         0.1571
     28 H8          0.1244   -2.7014   -0.0246 H         1 <0>         0.1572
@<TRIPOS>BOND
     1    1    6 ar
     2    1    2 ar
     3    1   21 1
     4    2    3 ar
     5    2   22 1
     6    3    4 ar
     7    3   20 1
     8    4    5 ar
     9    4   23 1
    10    5    6 ar
    11    5   24 1
    12    6    7 1
    13    7   11 1
    14    7    8 2
    15    8    9 1
    16    8   25 1
    17    9   10 1
    18   10   11 2
    19   10   12 1
    20   12   17 ar
    21   12   13 ar
    22   13   14 ar
    23   13   26 1
    24   14   15 ar
    25   14   27 1
    26   15   16 ar
    27   15   19 1
    28   16   17 ar
    29   16   18 1
    30   17   28 1
@<TRIPOS>MOLECULE
ZINC42205322
   33    34     0     0     0
SMALL
USER_CHARGES

@<TRIPOS>ATOM
      1 C1         -0.0187    1.5258    0.0104 C.3       1 <0>        -0.1842
      2 C2          0.0021   -0.0041    0.0020 C.3       1 <0>         0.0244
      3 C3          0.7421   -0.5109    1.2415 C.3       1 <0>        -0.1855
      4 N1         -1.3761   -0.5125    0.0124 N.4       1 <0>        -0.5065
      5 C4         -1.3591   -1.9758   -0.1163 C.3       1 <0>         0.0742
      6 C5         -2.7729   -2.4974   -0.1056 C.2       1 <0>        -0.0071
      7 C6         -3.4213   -2.7316   -1.2775 C.2       1 <0>        -0.1850
      8 S1         -4.9988   -3.3161   -0.6707 S.3       1 <0>         0.0914
      9 C7         -4.6235   -3.1850    1.0726 C.2       1 <0>         0.1869
     10 N2         -3.3785   -2.7314    1.0348 N.2       1 <0>        -0.5096
     11 C8         -5.4716   -3.5024    2.2416 C.ar      1 <0>        -0.0441
     12 C9         -4.9795   -3.3197    3.5345 C.ar      1 <0>        -0.0636
     13 C10        -5.7759   -3.6178    4.6210 C.ar      1 <0>        -0.1204
     14 C11        -7.0597   -4.0972    4.4307 C.ar      1 <0>        -0.0829
     15 C12        -7.5534   -4.2810    3.1514 C.ar      1 <0>        -0.1148
     16 C13        -6.7696   -3.9804    2.0565 C.ar      1 <0>        -0.0841
     17 H1          1.0039    1.9031    0.0027 H         1 <0>         0.1078
     18 H2         -0.5459    1.8868   -0.8726 H         1 <0>         0.0815
     19 H3         -0.5289    1.8773    0.9072 H         1 <0>         0.0814
     20 H4          0.5123   -0.3556   -0.8948 H         1 <0>         0.1402
     21 H5          0.2319   -0.1594    2.1383 H         1 <0>         0.0824
     22 H6          0.7568   -1.6008    1.2356 H         1 <0>         0.0818
     23 H7          1.7647   -0.1336    1.2338 H         1 <0>         0.1066
     24 H8         -1.8225   -0.2564    0.8803 H         1 <0>         0.4290
     25 H9         -0.8769   -2.2525   -1.0538 H         1 <0>         0.1452
     26 H10        -0.8062   -2.4075    0.7180 H         1 <0>         0.1460
     27 H11        -3.0787   -2.6006   -2.2933 H         1 <0>         0.2099
     28 H12        -3.9773   -2.9462    3.6844 H         1 <0>         0.1341
     29 H13        -5.3962   -3.4769    5.6222 H         1 <0>         0.1365
     30 H14        -7.6790   -4.3294    5.2845 H         1 <0>         0.1358
     31 H15        -8.5562   -4.6559    3.0095 H         1 <0>         0.1382
     32 H16        -7.1579   -4.1194    1.0584 H         1 <0>         0.1285
     33 H17        -1.8879   -0.1129   -0.7598 H         1 <0>         0.4260
@<TRIPOS>BOND
     1    1    2 1
     2    1   17 1
     3    1   18 1
     4    1   19 1
     5    2    3 1
     6    2    4 1
     7    2   20 1
     8    3   21 1
     9    3   22 1
    10    3   23 1
    11    4    5 1
    12    4   24 1
    13    4   33 1
    14    5    6 1
    15    5   25 1
    16    5   26 1
    17    6   10 1
    18    6    7 2
    19    7    8 1
    20    7   27 1
    21    8    9 1
    22    9   10 2
    23    9   11 1
    24   11   16 ar
    25   11   12 ar
    26   12   13 ar
    27   12   28 1
    28   13   14 ar
    29   13   29 1
    30   14   15 ar
    31   14   30 1
    32   15   16 ar
    33   15   31 1
    34   16   32 1
@<TRIPOS>MOLECULE
ZINC40999595
   27    28     0     0     0
SMALL
USER_CHARGES

@<TRIPOS>ATOM
      1 C1         -0.0178    1.4648    0.0101 C.3       1 <0>        -0.0469
      2 N1          0.0021   -0.0041    0.0020 N.4       1 <0>        -0.5087
      3 C2          0.6897   -0.4778   -1.2066 C.3       1 <0>         0.0767
      4 C3          0.7101   -1.9847   -1.2149 C.2       1 <0>        -0.0120
      5 C4         -0.2478   -2.6748   -1.8886 C.2       1 <0>        -0.1764
      6 S1          0.2643   -4.3565   -1.5598 S.3       1 <0>         0.1087
      7 C5          1.6945   -3.9578   -0.5636 C.2       1 <0>         0.1743
      8 N2          1.6560   -2.6328   -0.5761 N.2       1 <0>        -0.5005
      9 C6          2.6622   -4.8623    0.0932 C.ar      1 <0>        -0.0210
     10 C7          3.7176   -4.3357    0.8394 C.ar      1 <0>        -0.0446
     11 C8          4.6183   -5.1829    1.4505 C.ar      1 <0>        -0.1246
     12 C9          4.4776   -6.5554    1.3253 C.ar      1 <0>         0.1053
     13 C10         3.4304   -7.0855    0.5849 C.ar      1 <0>         0.0778
     14 C11         2.5200   -6.2453   -0.0261 C.ar      1 <0>        -0.0954
     15 F1          3.2980   -8.4247    0.4662 F         1 <0>        -0.1140
     16 F2          5.3629   -7.3806    1.9257 F         1 <0>        -0.1123
     17 H1          1.0047    1.8421    0.0024 H         1 <0>         0.1255
     18 H2         -0.5450    1.8259   -0.8730 H         1 <0>         0.1253
     19 H3         -0.5280    1.8163    0.9069 H         1 <0>         0.1280
     20 H4          0.4901   -0.3383    0.8195 H         1 <0>         0.4333
     21 H5          0.1625   -0.1167   -2.0897 H         1 <0>         0.1467
     22 H6          1.7123   -0.1005   -1.2143 H         1 <0>         0.1460
     23 H7         -1.0861   -2.3089   -2.4629 H         1 <0>         0.2125
     24 H8          3.8292   -3.2660    0.9378 H         1 <0>         0.1534
     25 H9          5.4352   -4.7754    2.0276 H         1 <0>         0.1618
     26 H10         1.7024   -6.6578   -0.5987 H         1 <0>         0.1522
     27 H11        -0.9445   -0.3533    0.0092 H         1 <0>         0.4286
@<TRIPOS>BOND
     1    1    2 1
     2    1   17 1
     3    1   18 1
     4    1   19 1
     5    2    3 1
     6    2   20 1
     7    2   27 1
     8    3    4 1
     9    3   21 1
    10    3   22 1
    11    4    8 1
    12    4    5 2
    13    5    6 1
    14    5   23 1
    15    6    7 1
    16    7    8 2
    17    7    9 1
    18    9   14 ar
    19    9   10 ar
    20   10   11 ar
    21   10   24 1
    22   11   12 ar
    23   11   25 1
    24   12   13 ar
    25   12   16 1
    26   13   14 ar
    27   13   15 1
    28   14   26 1
@<TRIPOS>MOLECULE
ZINC80804073
   39    40     0     0     0
SMALL
USER_CHARGES

@<TRIPOS>ATOM
      1 C1         -0.0187    1.5258    0.0104 C.3       1 <0>        -0.1770
      2 C2          0.0021   -0.0041    0.0020 C.3       1 <0>         0.1171
      3 H1         -1.0205   -0.3814    0.0098 H         1 <0>         0.1528
      4 C3          0.7309   -0.5033    1.2229 C.2       1 <0>        -0.0062
      5 C4          0.1263   -1.3835    2.0645 C.2       1 <0>        -0.1806
      6 S1          1.4142   -1.6113    3.2844 S.3       1 <0>         0.0901
      7 C5          2.6137   -0.5124    2.5423 C.2       1 <0>         0.1909
      8 N1          1.9522   -0.0933    1.4727 N.2       1 <0>        -0.5184
      9 C6          3.9781   -0.1680    2.9965 C.ar      1 <0>        -0.0508
     10 C7          4.7554    0.7289    2.2626 C.ar      1 <0>        -0.0592
     11 C8          6.0277    1.0460    2.6918 C.ar      1 <0>        -0.1183
     12 C9          6.5334    0.4765    3.8468 C.ar      1 <0>        -0.0286
     13 C10         5.7680   -0.4138    4.5787 C.ar      1 <0>        -0.1182
     14 C11         4.4917   -0.7341    4.1640 C.ar      1 <0>        -0.0786
     15 C12         7.9242    0.8270    4.3094 C.3       1 <0>        -0.0373
     16 C13         8.0112    2.3324    4.5684 C.3       1 <0>        -0.1418
     17 C14         8.2386    0.0684    5.6003 C.3       1 <0>        -0.1501
     18 C15         8.9346    0.4361    3.2291 C.3       1 <0>        -0.1413
     19 N2          0.6897   -0.4778   -1.2066 N.4       1 <0>        -0.6339
     20 H2          1.0039    1.9031    0.0027 H         1 <0>         0.0898
     21 H3         -0.5459    1.8868   -0.8726 H         1 <0>         0.0860
     22 H4         -0.5289    1.8773    0.9072 H         1 <0>         0.1035
     23 H5         -0.8587   -1.8231    2.0112 H         1 <0>         0.2095
     24 H6          4.3621    1.1736    1.3604 H         1 <0>         0.1328
     25 H7          6.6304    1.7400    2.1247 H         1 <0>         0.1346
     26 H8          6.1687   -0.8552    5.4793 H         1 <0>         0.1418
     27 H9          3.8933   -1.4253    4.7390 H         1 <0>         0.1281
     28 H10         7.2913    2.6109    5.3381 H         1 <0>         0.0588
     29 H11         9.0171    2.5860    4.9030 H         1 <0>         0.0659
     30 H12         7.7872    2.8729    3.6488 H         1 <0>         0.0585
     31 H13         8.1766   -1.0041    5.4158 H         1 <0>         0.0611
     32 H14         9.2445    0.3219    5.9349 H         1 <0>         0.0655
     33 H15         7.5187    0.3469    6.3700 H         1 <0>         0.0613
     34 H16         8.7106    0.9766    2.3094 H         1 <0>         0.0583
     35 H17         9.9406    0.6897    3.5637 H         1 <0>         0.0658
     36 H18         8.8726   -0.6363    3.0446 H         1 <0>         0.0583
     37 H19         1.6363   -0.1286   -1.2138 H         1 <0>         0.4380
     38 H20         0.7033   -1.4867   -1.2121 H         1 <0>         0.4346
     39 H21         0.2017   -0.1436   -2.0240 H         1 <0>         0.4370
@<TRIPOS>BOND
     1    1    2 1
     2    1   20 1
     3    1   21 1
     4    1   22 1
     5    2    3 1
     6    2    4 1
     7    2   19 1
     8    4    8 1
     9    4    5 2
    10    5    6 1
    11    5   23 1
    12    6    7 1
    13    7    8 2
    14    7    9 1
    15    9   14 ar
    16    9   10 ar
    17   10   11 ar
    18   10   24 1
    19   11   12 ar
    20   11   25 1
    21   12   13 ar
    22   12   15 1
    23   13   14 ar
    24   13   26 1
    25   14   27 1
    26   15   16 1
    27   15   17 1
    28   15   18 1
    29   16   28 1
    30   16   29 1
    31   16   30 1
    32   17   31 1
    33   17   32 1
    34   17   33 1
    35   18   34 1
    36   18   35 1
    37   18   36 1
    38   19   37 1
    39   19   38 1
    40   19   39 1
@<TRIPOS>MOLECULE
ZINC76784686
   36    37     0     0     0
SMALL
USER_CHARGES

@<TRIPOS>ATOM
      1 C1         -0.0187    1.5258    0.0104 C.3       1 <0>        -0.1745
      2 C2          0.0021   -0.0041    0.0020 C.3       1 <0>         0.1093
      3 H1          0.5293   -0.3651    0.8851 H         1 <0>         0.1574
      4 C3         -1.4117   -0.5257    0.0127 C.2       1 <0>         0.0426
      5 C4         -1.8247   -1.3934   -0.9491 C.2       1 <0>        -0.2658
      6 S1         -3.5212   -1.6577   -0.4485 S.3       1 <0>         0.0972
      7 C5         -3.4951   -0.5866    0.9830 C.2       1 <0>         0.2044
      8 N1         -2.2447   -0.1474    0.9534 N.2       1 <0>        -0.5050
      9 C6         -4.5757   -0.2782    1.9441 C.ar      1 <0>        -0.0547
     10 C7         -4.3425    0.6015    3.0020 C.ar      1 <0>        -0.0539
     11 C8         -5.3549    0.8850    3.8954 C.ar      1 <0>        -0.1207
     12 C9         -6.5990    0.2989    3.7444 C.ar      1 <0>        -0.0329
     13 C10        -6.8366   -0.5744    2.6980 C.ar      1 <0>        -0.1134
     14 C11        -5.8346   -0.8612    1.7939 C.ar      1 <0>        -0.0773
     15 C12        -7.7001    0.6128    4.7242 C.3       1 <0>        -0.0660
     16 C13        -8.8821    1.2376    3.9803 C.3       1 <0>        -0.1477
     17 C14        -8.1541   -0.6765    5.4115 C.3       1 <0>        -0.1477
     18 N2          0.6897   -0.4778   -1.2066 N.4       1 <0>        -0.6347
     19 H2          1.0039    1.9031    0.0027 H         1 <0>         0.0879
     20 H3         -0.5459    1.8868   -0.8726 H         1 <0>         0.0804
     21 H4         -0.5289    1.8773    0.9072 H         1 <0>         0.1149
     22 H5         -1.2795   -1.8079   -1.7842 H         1 <0>         0.1972
     23 H6         -3.3715    1.0590    3.1214 H         1 <0>         0.1364
     24 H7         -5.1758    1.5656    4.7145 H         1 <0>         0.1364
     25 H8         -7.8099   -1.0289    2.5858 H         1 <0>         0.1370
     26 H9         -6.0228   -1.5391    0.9744 H         1 <0>         0.1282
     27 H10        -7.3310    1.3133    5.4734 H         1 <0>         0.0848
     28 H11        -9.6785    1.4647    4.6890 H         1 <0>         0.0655
     29 H12        -8.5586    2.1562    3.4906 H         1 <0>         0.0579
     30 H13        -9.2512    0.5372    3.2311 H         1 <0>         0.0589
     31 H14        -7.3121   -1.1216    5.9415 H         1 <0>         0.0580
     32 H15        -8.9505   -0.4495    6.1202 H         1 <0>         0.0655
     33 H16        -8.5232   -1.3770    4.6624 H         1 <0>         0.0589
     34 H17         1.6363   -0.1286   -1.2138 H         1 <0>         0.4437
     35 H18         0.7033   -1.4867   -1.2121 H         1 <0>         0.4367
     36 H19         0.2017   -0.1436   -2.0240 H         1 <0>         0.4350
@<TRIPOS>BOND
     1    1    2 1
     2    1   19 1
     3    1   20 1
     4    1   21 1
     5    2    3 1
     6    2    4 1
     7    2   18 1
     8    4    8 1
     9    4    5 2
    10    5    6 1
    11    5   22 1
    12    6    7 1
    13    7    8 2
    14    7    9 1
    15    9   14 ar
    16    9   10 ar
    17   10   11 ar
    18   10   23 1
    19   11   12 ar
    20   11   24 1
    21   12   13 ar
    22   12   15 1
    23   13   14 ar
    24   13   25 1
    25   14   26 1
    26   15   16 1
    27   15   17 1
    28   15   27 1
    29   16   28 1
    30   16   29 1
    31   16   30 1
    32   17   31 1
    33   17   32 1
    34   17   33 1
    35   18   34 1
    36   18   35 1
    37   18   36 1
@<TRIPOS>MOLECULE
ZINC70840494
   33    34     0     0     0
SMALL
USER_CHARGES

@<TRIPOS>ATOM
      1 C1         -0.0187    1.5258    0.0104 C.3       1 <0>        -0.1495
      2 C2          0.0021   -0.0041    0.0020 C.3       1 <0>        -0.0960
      3 C3          0.7309   -0.5033    1.2229 C.ar      1 <0>        -0.0405
      4 C4          2.0982   -0.7086    1.1728 C.ar      1 <0>        -0.1146
      5 C5          2.7715   -1.1651    2.2872 C.ar      1 <0>        -0.0784
      6 C6          2.0704   -1.4197    3.4666 C.ar      1 <0>        -0.0507
      7 C7          0.6914   -1.2106    3.5105 C.ar      1 <0>        -0.0589
      8 C8          0.0308   -0.7488    2.3906 C.ar      1 <0>        -0.1207
      9 C9          2.7856   -1.9096    4.6645 C.2       1 <0>         0.1900
     10 N1          2.3088   -2.2125    5.8638 N.2       1 <0>        -0.5180
     11 C10         3.0969   -2.6384    6.8227 C.2       1 <0>        -0.0064
     12 C11         4.4299   -2.7757    6.5933 C.2       1 <0>        -0.1801
     13 S1          4.5252   -2.2603    4.8833 S.3       1 <0>         0.0909
     14 C12         2.5254   -2.9745    8.1760 C.3       1 <0>         0.1172
     15 H1          3.3359   -3.2224    8.8613 H         1 <0>         0.1529
     16 C13         1.7513   -1.7703    8.7160 C.3       1 <0>        -0.1771
     17 N2          1.6191   -4.1241    8.0531 N.4       1 <0>        -0.6339
     18 H2          1.0039    1.9031    0.0027 H         1 <0>         0.0581
     19 H3         -0.5459    1.8868   -0.8726 H         1 <0>         0.0656
     20 H4         -0.5289    1.8773    0.9072 H         1 <0>         0.0574
     21 H5         -1.0205   -0.3814    0.0098 H         1 <0>         0.0794
     22 H6          0.5123   -0.3556   -0.8948 H         1 <0>         0.0801
     23 H7          2.6396   -0.5115    0.2593 H         1 <0>         0.1373
     24 H8          3.8388   -1.3253    2.2467 H         1 <0>         0.1287
     25 H9          0.1430   -1.4061    4.4201 H         1 <0>         0.1333
     26 H10        -1.0357   -0.5823    2.4246 H         1 <0>         0.1353
     27 H11         5.2136   -3.1077    7.2582 H         1 <0>         0.2098
     28 H12         0.9408   -1.5223    8.0307 H         1 <0>         0.0898
     29 H13         1.3379   -2.0133    9.6949 H         1 <0>         0.0861
     30 H14         2.4237   -0.9173    8.8072 H         1 <0>         0.1035
     31 H15         1.2365   -4.3491    8.9592 H         1 <0>         0.4371
     32 H16         0.8688   -3.8945    7.4187 H         1 <0>         0.4380
     33 H17         2.1296   -4.9182    7.6970 H         1 <0>         0.4346
@<TRIPOS>BOND
     1    1    2 1
     2    1   18 1
     3    1   19 1
     4    1   20 1
     5    2    3 1
     6    2   21 1
     7    2   22 1
     8    3    8 ar
     9    3    4 ar
    10    4    5 ar
    11    4   23 1
    12    5    6 ar
    13    5   24 1
    14    6    7 ar
    15    6    9 1
    16    7    8 ar
    17    7   25 1
    18    8   26 1
    19    9   13 1
    20    9   10 2
    21   10   11 1
    22   11   12 2
    23   11   14 1
    24   12   13 1
    25   12   27 1
    26   14   15 1
    27   14   16 1
    28   14   17 1
    29   16   28 1
    30   16   29 1
    31   16   30 1
    32   17   31 1
    33   17   32 1
    34   17   33 1
@<TRIPOS>MOLECULE
ZINC70840498
   33    34     0     0     0
SMALL
USER_CHARGES

@<TRIPOS>ATOM
      1 C1         -0.0187    1.5258    0.0104 C.3       1 <0>        -0.1492
      2 C2          0.0021   -0.0041    0.0020 C.3       1 <0>        -0.0962
      3 C3          0.7309   -0.5033    1.2229 C.ar      1 <0>        -0.0385
      4 C4          2.0982   -0.7086    1.1728 C.ar      1 <0>        -0.1163
      5 C5          2.7715   -1.1651    2.2872 C.ar      1 <0>        -0.0768
      6 C6          2.0704   -1.4197    3.4666 C.ar      1 <0>        -0.0551
      7 C7          0.6914   -1.2106    3.5105 C.ar      1 <0>        -0.0539
      8 C8          0.0308   -0.7488    2.3906 C.ar      1 <0>        -0.1209
      9 C9          2.7856   -1.9096    4.6645 C.2       1 <0>         0.2041
     10 N1          2.3088   -2.2125    5.8638 N.2       1 <0>        -0.5049
     11 C10         3.0969   -2.6384    6.8227 C.2       1 <0>         0.0426
     12 C11         4.4299   -2.7757    6.5933 C.2       1 <0>        -0.2657
     13 S1          4.5252   -2.2603    4.8833 S.3       1 <0>         0.0975
     14 C12         2.5254   -2.9745    8.1760 C.3       1 <0>         0.1093
     15 H1          1.8529   -3.8275    8.0848 H         1 <0>         0.1574
     16 C13         1.7513   -1.7703    8.7160 C.3       1 <0>        -0.1746
     17 N2          3.6177   -3.3086    9.0996 N.4       1 <0>        -0.6347
     18 H2          1.0039    1.9031    0.0027 H         1 <0>         0.0578
     19 H3         -0.5459    1.8868   -0.8726 H         1 <0>         0.0655
     20 H4         -0.5289    1.8773    0.9072 H         1 <0>         0.0576
     21 H5         -1.0205   -0.3814    0.0098 H         1 <0>         0.0800
     22 H6          0.5123   -0.3556   -0.8948 H         1 <0>         0.0801
     23 H7          2.6396   -0.5115    0.2593 H         1 <0>         0.1375
     24 H8          3.8388   -1.3253    2.2467 H         1 <0>         0.1284
     25 H9          0.1430   -1.4061    4.4201 H         1 <0>         0.1365
     26 H10        -1.0357   -0.5823    2.4246 H         1 <0>         0.1365
     27 H11         5.2136   -3.1077    7.2582 H         1 <0>         0.1973
     28 H12         0.9408   -1.5223    8.0307 H         1 <0>         0.1149
     29 H13         1.3379   -2.0133    9.6949 H         1 <0>         0.0879
     30 H14         2.4237   -0.9173    8.8072 H         1 <0>         0.0804
     31 H15         4.1282   -4.1028    8.7435 H         1 <0>         0.4368
     32 H16         4.2402   -2.5190    9.1840 H         1 <0>         0.4350
     33 H17         3.2351   -3.5336   10.0057 H         1 <0>         0.4437
@<TRIPOS>BOND
     1    1    2 1
     2    1   18 1
     3    1   19 1
     4    1   20 1
     5    2    3 1
     6    2   21 1
     7    2   22 1
     8    3    8 ar
     9    3    4 ar
    10    4    5 ar
    11    4   23 1
    12    5    6 ar
    13    5   24 1
    14    6    7 ar
    15    6    9 1
    16    7    8 ar
    17    7   25 1
    18    8   26 1
    19    9   13 1
    20    9   10 2
    21   10   11 1
    22   11   12 2
    23   11   14 1
    24   12   13 1
    25   12   27 1
    26   14   15 1
    27   14   16 1
    28   14   17 1
    29   16   28 1
    30   16   29 1
    31   16   30 1
    32   17   31 1
    33   17   32 1
    34   17   33 1
@<TRIPOS>MOLECULE
ZINC41009971
   33    35     0     0     0
SMALL
USER_CHARGES

@<TRIPOS>ATOM
      1 C1          0.0467   -2.7587   -5.9037 C.3       1 <0>        -0.0467
      2 N1          0.6255   -2.6471   -4.5581 N.4       1 <0>        -0.5085
      3 C2         -0.2903   -3.2486   -3.5797 C.3       1 <0>         0.0769
      4 C3          0.3035   -3.1342   -2.1993 C.2       1 <0>        -0.0148
      5 C4         -0.0436   -2.0956   -1.3924 C.2       1 <0>        -0.1822
      6 S1          0.9319   -2.4658    0.0602 S.3       1 <0>         0.0952
      7 C5          1.6932   -3.9586   -0.5634 C.2       1 <0>         0.1887
      8 N2          1.1517   -4.0388   -1.7721 N.2       1 <0>        -0.5007
      9 C6          2.6589   -4.8613    0.0919 C.ar      1 <0>        -0.0405
     10 C7          3.7666   -4.3462    0.7475 C.ar      1 <0>        -0.0578
     11 C8          4.6794   -5.1909    1.3669 C.ar      1 <0>        -0.1275
     12 C9          4.5142   -6.5434    1.3482 C.ar      1 <0>        -0.0609
     13 C10         3.4059   -7.1094    0.6949 C.ar      1 <0>        -0.0576
     14 C11         2.4615   -6.2642    0.0632 C.ar      1 <0>        -0.0115
     15 C12         1.3538   -6.8296   -0.5833 C.ar      1 <0>        -0.1152
     16 C13         1.1956   -8.1828   -0.5916 C.ar      1 <0>        -0.0981
     17 C14         2.1201   -9.0157    0.0348 C.ar      1 <0>        -0.1141
     18 C15         3.2141   -8.5016    0.6610 C.ar      1 <0>        -0.0946
     19 H1         -0.1061   -3.8100   -6.1475 H         1 <0>         0.1251
     20 H2         -0.9096   -2.2364   -5.9322 H         1 <0>         0.1250
     21 H3          0.7263   -2.3124   -6.6297 H         1 <0>         0.1276
     22 H4          1.5108   -3.1306   -4.5317 H         1 <0>         0.4335
     23 H5         -1.2466   -2.7263   -3.6082 H         1 <0>         0.1456
     24 H6         -0.4431   -4.2999   -3.8235 H         1 <0>         0.1445
     25 H7         -0.7202   -1.2746   -1.5778 H         1 <0>         0.2098
     26 H8          3.9217   -3.2778    0.7766 H         1 <0>         0.1315
     27 H9          5.5353   -4.7680    1.8719 H         1 <0>         0.1392
     28 H10         5.2362   -7.1814    1.8359 H         1 <0>         0.1398
     29 H11         0.6290   -6.1956   -1.0723 H         1 <0>         0.1267
     30 H12         0.3413   -8.6158   -1.0905 H         1 <0>         0.1266
     31 H13         1.9721  -10.0853    0.0145 H         1 <0>         0.1307
     32 H14         3.9234   -9.1592    1.1416 H         1 <0>         0.1363
     33 H15         0.7670   -1.6739   -4.3325 H         1 <0>         0.4283
@<TRIPOS>BOND
     1    1    2 1
     2    1   19 1
     3    1   20 1
     4    1   21 1
     5    2    3 1
     6    2   22 1
     7    2   33 1
     8    3    4 1
     9    3   23 1
    10    3   24 1
    11    4    8 1
    12    4    5 2
    13    5    6 1
    14    5   25 1
    15    6    7 1
    16    7    8 2
    17    7    9 1
    18    9   14 ar
    19    9   10 ar
    20   10   11 ar
    21   10   26 1
    22   11   12 ar
    23   11   27 1
    24   12   13 ar
    25   12   28 1
    26   13   18 ar
    27   13   14 ar
    28   14   15 ar
    29   15   16 ar
    30   15   29 1
    31   16   17 ar
    32   16   30 1
    33   17   18 ar
    34   17   31 1
    35   18   32 1
@<TRIPOS>MOLECULE
ZINC76784684
   36    37     0     0     0
SMALL
USER_CHARGES

@<TRIPOS>ATOM
      1 C1         -0.0187    1.5258    0.0104 C.3       1 <0>        -0.1770
      2 C2          0.0021   -0.0041    0.0020 C.3       1 <0>         0.1172
      3 H1          0.5293   -0.3651    0.8851 H         1 <0>         0.1529
      4 C3          0.7074   -0.4901   -1.2379 C.2       1 <0>        -0.0062
      5 C4          1.7603   -1.3438   -1.1319 C.2       1 <0>        -0.1804
      6 S1          2.1787   -1.5671   -2.8564 S.3       1 <0>         0.0907
      7 C5          0.9092   -0.5021   -3.5280 C.2       1 <0>         0.1904
      8 N1          0.3031   -0.0943   -2.4218 N.2       1 <0>        -0.5182
      9 C6          0.6120   -0.1700   -4.9379 C.ar      1 <0>        -0.0505
     10 C7         -0.4344    0.6998   -5.2474 C.ar      1 <0>        -0.0587
     11 C8         -0.7066    1.0056   -6.5649 C.ar      1 <0>        -0.1206
     12 C9          0.0551    0.4515   -7.5783 C.ar      1 <0>        -0.0348
     13 C10         1.0936   -0.4120   -7.2783 C.ar      1 <0>        -0.1117
     14 C11         1.3804   -0.7206   -5.9645 C.ar      1 <0>        -0.0789
     15 C12        -0.2482    0.7895   -9.0153 C.3       1 <0>        -0.0657
     16 C13         0.9770    1.4463   -9.6542 C.3       1 <0>        -0.1481
     17 C14        -0.5965   -0.4905   -9.7777 C.3       1 <0>        -0.1476
     18 N2         -1.3761   -0.5125    0.0124 N.4       1 <0>        -0.6339
     19 H2          1.0039    1.9031    0.0027 H         1 <0>         0.1035
     20 H3         -0.5459    1.8868   -0.8726 H         1 <0>         0.0897
     21 H4         -0.5289    1.8773    0.9072 H         1 <0>         0.0861
     22 H5          2.2175   -1.7689   -0.2507 H         1 <0>         0.2097
     23 H6         -1.0301    1.1325   -4.4572 H         1 <0>         0.1332
     24 H7         -1.5162    1.6786   -6.8057 H         1 <0>         0.1352
     25 H8          1.6842   -0.8415   -8.0740 H         1 <0>         0.1368
     26 H9          2.1946   -1.3907   -5.7313 H         1 <0>         0.1284
     27 H10        -1.0923    1.4779   -9.0562 H         1 <0>         0.0843
     28 H11         0.7577    1.6908  -10.6935 H         1 <0>         0.0656
     29 H12         1.2251    2.3582   -9.1110 H         1 <0>         0.0580
     30 H13         1.8212    0.7580   -9.6132 H         1 <0>         0.0591
     31 H14        -1.4693   -0.9585   -9.3225 H         1 <0>         0.0575
     32 H15        -0.8158   -0.2460  -10.8170 H         1 <0>         0.0655
     33 H16         0.2477   -1.1789   -9.7367 H         1 <0>         0.0591
     34 H17        -1.8641   -0.1783   -0.8050 H         1 <0>         0.4380
     35 H18        -1.3624   -1.5214    0.0069 H         1 <0>         0.4346
     36 H19        -1.8484   -0.1871    0.8426 H         1 <0>         0.4371
@<TRIPOS>BOND
     1    1    2 1
     2    1   19 1
     3    1   20 1
     4    1   21 1
     5    2    3 1
     6    2    4 1
     7    2   18 1
     8    4    8 1
     9    4    5 2
    10    5    6 1
    11    5   22 1
    12    6    7 1
    13    7    8 2
    14    7    9 1
    15    9   14 ar
    16    9   10 ar
    17   10   11 ar
    18   10   23 1
    19   11   12 ar
    20   11   24 1
    21   12   13 ar
    22   12   15 1
    23   13   14 ar
    24   13   25 1
    25   14   26 1
    26   15   16 1
    27   15   17 1
    28   15   27 1
    29   16   28 1
    30   16   29 1
    31   16   30 1
    32   17   31 1
    33   17   32 1
    34   17   33 1
    35   18   34 1
    36   18   35 1
    37   18   36 1
@<TRIPOS>MOLECULE
ZINC80804072
   39    40     0     0     0
SMALL
USER_CHARGES

@<TRIPOS>ATOM
      1 C1         -0.0187    1.5258    0.0104 C.3       1 <0>        -0.1745
      2 C2          0.0021   -0.0041    0.0020 C.3       1 <0>         0.1093
      3 H1         -1.0205   -0.3814    0.0098 H         1 <0>         0.1573
      4 C3          0.7074   -0.4901   -1.2379 C.2       1 <0>         0.0428
      5 C4          1.7603   -1.3438   -1.1319 C.2       1 <0>        -0.2661
      6 S1          2.1787   -1.5671   -2.8564 S.3       1 <0>         0.0967
      7 C5          0.9092   -0.5021   -3.5280 C.2       1 <0>         0.2048
      8 N1          0.3031   -0.0943   -2.4218 N.2       1 <0>        -0.5052
      9 C6          0.6120   -0.1700   -4.9379 C.ar      1 <0>        -0.0551
     10 C7         -0.4344    0.6998   -5.2474 C.ar      1 <0>        -0.0543
     11 C8         -0.7066    1.0056   -6.5649 C.ar      1 <0>        -0.1185
     12 C9          0.0551    0.4515   -7.5783 C.ar      1 <0>        -0.0266
     13 C10         1.0936   -0.4120   -7.2783 C.ar      1 <0>        -0.1198
     14 C11         1.3804   -0.7206   -5.9645 C.ar      1 <0>        -0.0769
     15 C12        -0.2482    0.7895   -9.0153 C.3       1 <0>        -0.0374
     16 C13        -0.1052    2.2982   -9.2254 C.3       1 <0>        -0.1416
     17 C14         0.7314    0.0520   -9.9303 C.3       1 <0>        -0.1498
     18 C15        -1.6787    0.3614   -9.3489 C.3       1 <0>        -0.1417
     19 N2          0.7126   -0.4907    1.1921 N.4       1 <0>        -0.6347
     20 H2          1.0039    1.9031    0.0027 H         1 <0>         0.0804
     21 H3         -0.5459    1.8868   -0.8726 H         1 <0>         0.1149
     22 H4         -0.5289    1.8773    0.9072 H         1 <0>         0.0879
     23 H5          2.2175   -1.7689   -0.2507 H         1 <0>         0.1971
     24 H6         -1.0301    1.1325   -4.4572 H         1 <0>         0.1360
     25 H7         -1.5162    1.6786   -6.8057 H         1 <0>         0.1358
     26 H8          1.6842   -0.8415   -8.0740 H         1 <0>         0.1421
     27 H9          2.1946   -1.3907   -5.7313 H         1 <0>         0.1279
     28 H10         0.9139    2.6032   -8.9877 H         1 <0>         0.0585
     29 H11        -0.3246    2.5427  -10.2647 H         1 <0>         0.0658
     30 H12        -0.8031    2.8236   -8.5735 H         1 <0>         0.0590
     31 H13         0.6295   -1.0229   -9.7806 H         1 <0>         0.0611
     32 H14         0.5121    0.2965  -10.9697 H         1 <0>         0.0654
     33 H15         1.7505    0.3570   -9.6926 H         1 <0>         0.0610
     34 H16        -2.3766    0.8868   -8.6970 H         1 <0>         0.0590
     35 H17        -1.8980    0.6059  -10.3883 H         1 <0>         0.0658
     36 H18        -1.7806   -0.7135   -9.1992 H         1 <0>         0.0586
     37 H19         0.2403   -0.1653    2.0223 H         1 <0>         0.4437
     38 H20         0.7262   -1.4996    1.1866 H         1 <0>         0.4367
     39 H21         1.6592   -0.1415    1.1850 H         1 <0>         0.4350
@<TRIPOS>BOND
     1    1    2 1
     2    1   20 1
     3    1   21 1
     4    1   22 1
     5    2    3 1
     6    2    4 1
     7    2   19 1
     8    4    8 1
     9    4    5 2
    10    5    6 1
    11    5   23 1
    12    6    7 1
    13    7    8 2
    14    7    9 1
    15    9   14 ar
    16    9   10 ar
    17   10   11 ar
    18   10   24 1
    19   11   12 ar
    20   11   25 1
    21   12   13 ar
    22   12   15 1
    23   13   14 ar
    24   13   26 1
    25   14   27 1
    26   15   16 1
    27   15   17 1
    28   15   18 1
    29   16   28 1
    30   16   29 1
    31   16   30 1
    32   17   31 1
    33   17   32 1
    34   17   33 1
    35   18   34 1
    36   18   35 1
    37   18   36 1
    38   19   37 1
    39   19   38 1
    40   19   39 1
@<TRIPOS>MOLECULE
ZINC40999585
   27    28     0     0     0
SMALL
USER_CHARGES

@<TRIPOS>ATOM
      1 C1         -0.0178    1.4648    0.0101 C.3       1 <0>        -0.0467
      2 N1          0.0021   -0.0041    0.0020 N.4       1 <0>        -0.5086
      3 C2          0.6897   -0.4778   -1.2066 C.3       1 <0>         0.0775
      4 C3          0.7101   -1.9847   -1.2149 C.2       1 <0>        -0.0129
      5 C4         -0.2478   -2.6747   -1.8885 C.2       1 <0>        -0.1918
      6 S1          0.2642   -4.3565   -1.5598 S.3       1 <0>         0.1266
      7 C5          1.6945   -3.9579   -0.5636 C.2       1 <0>         0.1707
      8 N2          1.6560   -2.6328   -0.5761 N.2       1 <0>        -0.5044
      9 C6          2.6624   -4.8623    0.0926 C.ar      1 <0>        -0.0728
     10 C7          3.7180   -4.3369    0.8390 C.ar      1 <0>        -0.0387
     11 C8          4.6175   -5.1860    1.4493 C.ar      1 <0>        -0.1283
     12 C9          4.4765   -6.5569    1.3231 C.ar      1 <0>        -0.0554
     13 C10         3.4337   -7.0863    0.5854 C.ar      1 <0>        -0.1474
     14 C11         2.5213   -6.2474   -0.0269 C.ar      1 <0>         0.1288
     15 F1          1.4992   -6.7651   -0.7429 F         1 <0>        -0.1244
     16 H1          1.0047    1.8421    0.0024 H         1 <0>         0.1252
     17 H2         -0.5450    1.8259   -0.8730 H         1 <0>         0.1250
     18 H3         -0.5280    1.8163    0.9069 H         1 <0>         0.1276
     19 H4          0.4901   -0.3383    0.8195 H         1 <0>         0.4330
     20 H5          0.1625   -0.1167   -2.0897 H         1 <0>         0.1458
     21 H6          1.7123   -0.1005   -1.2143 H         1 <0>         0.1448
     22 H7         -1.0862   -2.3088   -2.4627 H         1 <0>         0.2102
     23 H8          3.8305   -3.2674    0.9384 H         1 <0>         0.1446
     24 H9          5.4346   -4.7797    2.0271 H         1 <0>         0.1447
     25 H10         5.1846   -7.2164    1.8028 H         1 <0>         0.1472
     26 H11         3.3296   -8.1571    0.4906 H         1 <0>         0.1515
     27 H12        -0.9445   -0.3533    0.0092 H         1 <0>         0.4285
@<TRIPOS>BOND
     1    1    2 1
     2    1   16 1
     3    1   17 1
     4    1   18 1
     5    2    3 1
     6    2   19 1
     7    2   27 1
     8    3    4 1
     9    3   20 1
    10    3   21 1
    11    4    8 1
    12    4    5 2
    13    5    6 1
    14    5   22 1
    15    6    7 1
    16    7    8 2
    17    7    9 1
    18    9   14 ar
    19    9   10 ar
    20   10   11 ar
    21   10   23 1
    22   11   12 ar
    23   11   24 1
    24   12   13 ar
    25   12   25 1
    26   13   14 ar
    27   13   26 1
    28   14   15 1
@<TRIPOS>MOLECULE
ZINC70842498
   27    28     0     0     0
SMALL
USER_CHARGES

@<TRIPOS>ATOM
      1 C1         -0.0187    1.5258    0.0104 C.3       1 <0>        -0.1772
      2 C2          0.0021   -0.0041    0.0020 C.3       1 <0>         0.1170
      3 H1          0.5123   -0.3556   -0.8948 H         1 <0>         0.1531
      4 C3         -1.4117   -0.5257    0.0127 C.2       1 <0>        -0.0151
      5 C4         -1.8245   -1.3932   -0.9489 C.2       1 <0>        -0.1935
      6 S1         -3.5211   -1.6576   -0.4485 S.3       1 <0>         0.1465
      7 C5         -3.4954   -0.5867    0.9830 C.2       1 <0>         0.1491
      8 N1         -2.2449   -0.1472    0.9537 N.2       1 <0>        -0.4854
      9 C6         -4.5759   -0.2783    1.9436 C.ar      1 <0>        -0.0164
     10 C7         -4.3432    0.6019    3.0025 C.ar      1 <0>         0.0173
     11 C8         -5.3574    0.8857    3.8957 C.ar      1 <0>        -0.1034
     12 C9         -6.6015    0.3004    3.7434 C.ar      1 <0>        -0.0626
     13 C10        -6.8391   -0.5728    2.6972 C.ar      1 <0>        -0.0971
     14 C11        -5.8359   -0.8614    1.7930 C.ar      1 <0>        -0.0112
     15 Cl1        -6.1385   -1.9516    0.4763 Cl        1 <0>        -0.0160
     16 Cl2        -2.7825    1.3372    3.1957 Cl        1 <0>        -0.0308
     17 N2          0.7126   -0.4907    1.1921 N.4       1 <0>        -0.6349
     18 H2          1.0039    1.9031    0.0027 H         1 <0>         0.0853
     19 H3         -0.5459    1.8868   -0.8726 H         1 <0>         0.1042
     20 H4         -0.5289    1.8773    0.9072 H         1 <0>         0.0885
     21 H5         -1.2792   -1.8078   -1.7837 H         1 <0>         0.2070
     22 H6         -5.1788    1.5660    4.7153 H         1 <0>         0.1543
     23 H7         -7.3911    0.5260    4.4450 H         1 <0>         0.1571
     24 H8         -7.8127   -1.0265    2.5846 H         1 <0>         0.1561
     25 H9          0.2403   -0.1653    2.0223 H         1 <0>         0.4367
     26 H10         0.7262   -1.4996    1.1866 H         1 <0>         0.4347
     27 H11         1.6592   -0.1415    1.1850 H         1 <0>         0.4367
@<TRIPOS>BOND
     1    1    2 1
     2    1   18 1
     3    1   19 1
     4    1   20 1
     5    2    3 1
     6    2    4 1
     7    2   17 1
     8    4    8 1
     9    4    5 2
    10    5    6 1
    11    5   21 1
    12    6    7 1
    13    7    8 2
    14    7    9 1
    15    9   14 ar
    16    9   10 ar
    17   10   11 ar
    18   10   16 1
    19   11   12 ar
    20   11   22 1
    21   12   13 ar
    22   12   23 1
    23   13   14 ar
    24   13   24 1
    25   14   15 1
    26   17   25 1
    27   17   26 1
    28   17   27 1
@<TRIPOS>MOLECULE
ZINC41009955
   27    28     0     0     0
SMALL
USER_CHARGES

@<TRIPOS>ATOM
      1 C1         -0.0178    1.4648    0.0101 C.3       1 <0>        -0.0468
      2 N1          0.0021   -0.0041    0.0020 N.4       1 <0>        -0.5086
      3 C2          0.6897   -0.4778   -1.2066 C.3       1 <0>         0.0765
      4 C3          0.7101   -1.9847   -1.2149 C.2       1 <0>        -0.0167
      5 C4         -0.2479   -2.6748   -1.8885 C.2       1 <0>        -0.2012
      6 S1          0.2638   -4.3565   -1.5592 S.3       1 <0>         0.1456
      7 C5          1.6940   -3.9579   -0.5629 C.2       1 <0>         0.1553
      8 N2          1.6560   -2.6327   -0.5761 N.2       1 <0>        -0.4965
      9 C6          2.6612   -4.8623    0.0943 C.ar      1 <0>        -0.0211
     10 C7          3.7169   -4.3363    0.8407 C.ar      1 <0>        -0.0418
     11 C8          4.6162   -5.1849    1.4515 C.ar      1 <0>        -0.1030
     12 C9          4.4743   -6.5569    1.3256 C.ar      1 <0>         0.0007
     13 C10         3.4298   -7.0856    0.5870 C.ar      1 <0>        -0.0959
     14 C11         2.5191   -6.2465   -0.0243 C.ar      1 <0>        -0.0078
     15 Cl1         1.2054   -6.9106   -0.9444 Cl        1 <0>        -0.0156
     16 Cl2         5.6115   -7.6180    2.0968 Cl        1 <0>        -0.0291
     17 H1          1.0047    1.8421    0.0024 H         1 <0>         0.1251
     18 H2         -0.5450    1.8259   -0.8730 H         1 <0>         0.1250
     19 H3         -0.5280    1.8163    0.9069 H         1 <0>         0.1275
     20 H4          0.4901   -0.3383    0.8195 H         1 <0>         0.4327
     21 H5          0.1625   -0.1167   -2.0897 H         1 <0>         0.1453
     22 H6          1.7123   -0.1005   -1.2143 H         1 <0>         0.1443
     23 H7         -1.0858   -2.3089   -2.4633 H         1 <0>         0.2075
     24 H8          3.8294   -3.2668    0.9393 H         1 <0>         0.1550
     25 H9          5.4333   -4.7786    2.0292 H         1 <0>         0.1554
     26 H10         3.3242   -8.1562    0.4923 H         1 <0>         0.1598
     27 H11        -0.9445   -0.3533    0.0092 H         1 <0>         0.4284
@<TRIPOS>BOND
     1    1    2 1
     2    1   17 1
     3    1   18 1
     4    1   19 1
     5    2    3 1
     6    2   20 1
     7    2   27 1
     8    3    4 1
     9    3   21 1
    10    3   22 1
    11    4    8 1
    12    4    5 2
    13    5    6 1
    14    5   23 1
    15    6    7 1
    16    7    8 2
    17    7    9 1
    18    9   14 ar
    19    9   10 ar
    20   10   11 ar
    21   10   24 1
    22   11   12 ar
    23   11   25 1
    24   12   13 ar
    25   12   16 1
    26   13   14 ar
    27   13   26 1
    28   14   15 1
@<TRIPOS>MOLECULE
ZINC70842494
   27    28     0     0     0
SMALL
USER_CHARGES

@<TRIPOS>ATOM
      1 C1         -0.0187    1.5258    0.0104 C.3       1 <0>        -0.1746
      2 C2          0.0021   -0.0041    0.0020 C.3       1 <0>         0.1088
      3 H1          0.5123   -0.3556   -0.8948 H         1 <0>         0.1563
      4 C3          0.7309   -0.5033    1.2229 C.2       1 <0>         0.0324
      5 C4          0.1264   -1.3833    2.0642 C.2       1 <0>        -0.2785
      6 S1          1.4141   -1.6112    3.2843 S.3       1 <0>         0.1530
      7 C5          2.6139   -0.5124    2.5425 C.2       1 <0>         0.1631
      8 N1          1.9525   -0.0932    1.4727 N.2       1 <0>        -0.4719
      9 C6          3.9777   -0.1681    2.9970 C.ar      1 <0>        -0.0216
     10 C7          4.7561    0.7294    2.2630 C.ar      1 <0>         0.0181
     11 C8          6.0292    1.0468    2.6938 C.ar      1 <0>        -0.1042
     12 C9          6.5338    0.4780    3.8494 C.ar      1 <0>        -0.0604
     13 C10         5.7686   -0.4122    4.5813 C.ar      1 <0>        -0.0991
     14 C11         4.4917   -0.7344    4.1656 C.ar      1 <0>        -0.0094
     15 Cl1         3.5302   -1.8458    5.0897 Cl        1 <0>        -0.0179
     16 Cl2         4.1251    1.4440    0.8122 Cl        1 <0>        -0.0192
     17 N2         -1.3761   -0.5125    0.0124 N.4       1 <0>        -0.6343
     18 H2          1.0039    1.9031    0.0027 H         1 <0>         0.1134
     19 H3         -0.5459    1.8868   -0.8726 H         1 <0>         0.0870
     20 H4         -0.5289    1.8773    0.9072 H         1 <0>         0.0810
     21 H5         -0.8585   -1.8230    2.0107 H         1 <0>         0.1948
     22 H6          6.6325    1.7404    2.1270 H         1 <0>         0.1552
     23 H7          7.5301    0.7298    4.1817 H         1 <0>         0.1574
     24 H8          6.1690   -0.8528    5.4824 H         1 <0>         0.1562
     25 H9         -1.8641   -0.1783   -0.8050 H         1 <0>         0.4432
     26 H10        -1.3624   -1.5214    0.0069 H         1 <0>         0.4365
     27 H11        -1.8484   -0.1871    0.8426 H         1 <0>         0.4348
@<TRIPOS>BOND
     1    1    2 1
     2    1   18 1
     3    1   19 1
     4    1   20 1
     5    2    3 1
     6    2    4 1
     7    2   17 1
     8    4    8 1
     9    4    5 2
    10    5    6 1
    11    5   21 1
    12    6    7 1
    13    7    8 2
    14    7    9 1
    15    9   14 ar
    16    9   10 ar
    17   10   11 ar
    18   10   16 1
    19   11   12 ar
    20   11   22 1
    21   12   13 ar
    22   12   23 1
    23   13   14 ar
    24   13   24 1
    25   14   15 1
    26   17   25 1
    27   17   26 1
    28   17   27 1
@<TRIPOS>MOLECULE
ZINC41010042
   30    31     0     0     0
SMALL
USER_CHARGES

@<TRIPOS>ATOM
      1 C1         -0.0187    1.5258    0.0104 C.3       1 <0>        -0.1898
      2 C2          0.0021   -0.0041    0.0020 C.3       1 <0>        -0.0096
      3 N1          0.6897   -0.4778   -1.2066 N.4       1 <0>        -0.5092
      4 C3          0.7096   -1.9467   -1.2147 C.3       1 <0>         0.0777
      5 C4          1.4150   -2.4327   -2.4546 C.2       1 <0>        -0.0171
      6 C5          2.7374   -2.7434   -2.4078 C.2       1 <0>        -0.1995
      7 S1          3.0196   -3.2412   -4.1022 S.3       1 <0>         0.1441
      8 C6          1.3498   -2.9818   -4.6864 C.2       1 <0>         0.1494
      9 N2          0.7521   -2.5617   -3.5801 N.2       1 <0>        -0.4785
     10 C7          0.7862   -3.1857   -6.0377 C.ar      1 <0>        -0.0173
     11 C8         -0.5610   -2.9129   -6.2845 C.ar      1 <0>         0.0163
     12 C9         -1.0805   -3.1053   -7.5495 C.ar      1 <0>        -0.1038
     13 C10        -0.2698   -3.5669   -8.5709 C.ar      1 <0>        -0.0626
     14 C11         1.0654   -3.8396   -8.3336 C.ar      1 <0>        -0.0979
     15 C12         1.5999   -3.6464   -7.0750 C.ar      1 <0>        -0.0111
     16 Cl1         3.2777   -3.9818   -6.7813 Cl        1 <0>        -0.0170
     17 Cl2        -1.5803   -2.3340   -5.0040 Cl        1 <0>        -0.0258
     18 H1          1.0039    1.9031    0.0027 H         1 <0>         0.0806
     19 H2         -0.5459    1.8868   -0.8726 H         1 <0>         0.0804
     20 H3         -0.5289    1.8773    0.9072 H         1 <0>         0.1080
     21 H4          0.5293   -0.3651    0.8851 H         1 <0>         0.1325
     22 H5         -1.0205   -0.3814    0.0098 H         1 <0>         0.1318
     23 H6          0.2017   -0.1436   -2.0240 H         1 <0>         0.4304
     24 H7          1.2368   -2.3077   -0.3316 H         1 <0>         0.1449
     25 H8         -0.3130   -2.3239   -1.2069 H         1 <0>         0.1431
     26 H9          3.4267   -2.7013   -1.5775 H         1 <0>         0.2068
     27 H10        -2.1223   -2.8951   -7.7417 H         1 <0>         0.1543
     28 H11        -0.6815   -3.7155   -9.5583 H         1 <0>         0.1570
     29 H12         1.6925   -4.2001   -9.1356 H         1 <0>         0.1559
     30 H13         1.6363   -0.1286   -1.2138 H         1 <0>         0.4259
@<TRIPOS>BOND
     1    1    2 1
     2    1   18 1
     3    1   19 1
     4    1   20 1
     5    2    3 1
     6    2   21 1
     7    2   22 1
     8    3    4 1
     9    3   23 1
    10    3   30 1
    11    4    5 1
    12    4   24 1
    13    4   25 1
    14    5    9 1
    15    5    6 2
    16    6    7 1
    17    6   26 1
    18    7    8 1
    19    8    9 2
    20    8   10 1
    21   10   15 ar
    22   10   11 ar
    23   11   12 ar
    24   11   17 1
    25   12   13 ar
    26   12   27 1
    27   13   14 ar
    28   13   28 1
    29   14   15 ar
    30   14   29 1
    31   15   16 1
@<TRIPOS>MOLECULE
ZINC42391144
   23    24     0     0     0
SMALL
USER_CHARGES

@<TRIPOS>ATOM
      1 C1         -0.0166    1.3752    0.0096 C.ar      1 <0>        -0.1122
      2 C2          1.1701    2.0869    0.0021 C.ar      1 <0>        -0.0880
      3 C3          2.3826    1.4218   -0.0130 C.ar      1 <0>        -0.1054
      4 C4          2.4159    0.0410   -0.0212 C.ar      1 <0>        -0.0231
      5 C5          1.2216   -0.6825   -0.0136 C.ar      1 <0>        -0.0048
      6 C6          0.0021   -0.0041    0.0020 C.ar      1 <0>        -0.0612
      7 C7          1.2488   -2.1607   -0.0228 C.2       1 <0>         0.1350
      8 N1          0.2401   -3.0208   -0.0234 N.2       1 <0>        -0.4891
      9 C8          0.4494   -4.3164   -0.0329 C.2       1 <0>         0.0410
     10 C9          1.7209   -4.7972   -0.0424 C.2       1 <0>        -0.1876
     11 S1          2.6512   -3.2697   -0.0439 S.3       1 <0>         0.0794
     12 C10        -0.7179   -5.2696   -0.0328 C.3       1 <0>         0.1498
     13 N2         -1.1653   -5.4937    1.3441 N.2       1 <0>        -0.4000
     14 N3         -2.2157   -5.2289    1.6439 N.1       1 <0>         0.3019
     15 N4         -3.2437   -4.9698    1.9372 N.1       1 <0>        -0.1712
     16 Cl1         3.9384   -0.7927   -0.0413 Cl        1 <0>        -0.0344
     17 H1         -0.9599    1.9010    0.0259 H         1 <0>         0.1400
     18 H2          1.1494    3.1667    0.0077 H         1 <0>         0.1409
     19 H3          3.3052    1.9832   -0.0188 H         1 <0>         0.1439
     20 H4         -0.9251   -0.5578    0.0082 H         1 <0>         0.1437
     21 H5          2.0720   -5.8185   -0.0509 H         1 <0>         0.2027
     22 H6         -1.5348   -4.8437   -0.6155 H         1 <0>         0.0790
     23 H7         -0.4125   -6.2181   -0.4746 H         1 <0>         0.1198
@<TRIPOS>BOND
     1    1    6 ar
     2    1    2 ar
     3    1   17 1
     4    2    3 ar
     5    2   18 1
     6    3    4 ar
     7    3   19 1
     8    4    5 ar
     9    4   16 1
    10    5    6 ar
    11    5    7 1
    12    6   20 1
    13    7   11 1
    14    7    8 2
    15    8    9 1
    16    9   10 2
    17    9   12 1
    18   10   11 1
    19   10   21 1
    20   12   13 1
    21   12   22 1
    22   12   23 1
    23   13   14 2
    24   14   15 2
@<TRIPOS>MOLECULE
ZINC43389057
   27    28     0     0     0
SMALL
USER_CHARGES

@<TRIPOS>ATOM
      1 C1         -0.0178    1.4648    0.0101 C.3       1 <0>        -0.0469
      2 N1          0.0021   -0.0041    0.0020 N.4       1 <0>        -0.5087
      3 C2          0.6897   -0.4778   -1.2066 C.3       1 <0>         0.0768
      4 C3          0.7101   -1.9847   -1.2149 C.2       1 <0>        -0.0125
      5 C4         -0.2479   -2.6749   -1.8886 C.2       1 <0>        -0.1757
      6 S1          0.2638   -4.3566   -1.5592 S.3       1 <0>         0.1108
      7 C5          1.6940   -3.9577   -0.5629 C.2       1 <0>         0.1714
      8 N2          1.6559   -2.6327   -0.5762 N.2       1 <0>        -0.4986
      9 C6          2.6614   -4.8622    0.0945 C.ar      1 <0>        -0.0051
     10 C7          3.7169   -4.3357    0.8408 C.ar      1 <0>        -0.0632
     11 C8          4.6168   -5.1832    1.4528 C.ar      1 <0>        -0.0803
     12 C9          4.4756   -6.5548    1.3285 C.ar      1 <0>        -0.0496
     13 C10         3.4294   -7.0849    0.5886 C.ar      1 <0>         0.1204
     14 C11         2.5192   -6.2450   -0.0241 C.ar      1 <0>        -0.1128
     15 F1          3.2972   -8.4242    0.4707 F         1 <0>        -0.1124
     16 Cl1         5.6126   -7.6149    2.1012 Cl        1 <0>        -0.0215
     17 H1          1.0047    1.8421    0.0024 H         1 <0>         0.1256
     18 H2         -0.5450    1.8259   -0.8730 H         1 <0>         0.1254
     19 H3         -0.5280    1.8163    0.9069 H         1 <0>         0.1281
     20 H4          0.4901   -0.3383    0.8195 H         1 <0>         0.4333
     21 H5          0.1625   -0.1167   -2.0897 H         1 <0>         0.1468
     22 H6          1.7123   -0.1005   -1.2143 H         1 <0>         0.1461
     23 H7         -1.0861   -2.3090   -2.4632 H         1 <0>         0.2128
     24 H8          3.8290   -3.2660    0.9387 H         1 <0>         0.1520
     25 H9          5.4337   -4.7759    2.0299 H         1 <0>         0.1585
     26 H10         1.7019   -6.6580   -0.5966 H         1 <0>         0.1509
     27 H11        -0.9445   -0.3533    0.0092 H         1 <0>         0.4287
@<TRIPOS>BOND
     1    1    2 1
     2    1   17 1
     3    1   18 1
     4    1   19 1
     5    2    3 1
     6    2   20 1
     7    2   27 1
     8    3    4 1
     9    3   21 1
    10    3   22 1
    11    4    8 1
    12    4    5 2
    13    5    6 1
    14    5   23 1
    15    6    7 1
    16    7    8 2
    17    7    9 1
    18    9   14 ar
    19    9   10 ar
    20   10   11 ar
    21   10   24 1
    22   11   12 ar
    23   11   25 1
    24   12   13 ar
    25   12   16 1
    26   13   14 ar
    27   13   15 1
    28   14   26 1
@<TRIPOS>MOLECULE
ZINC80803688
   36    37     0     0     0
SMALL
USER_CHARGES

@<TRIPOS>ATOM
      1 C1         -0.0187    1.5258    0.0104 C.3       1 <0>        -0.1560
      2 C2          0.0021   -0.0041    0.0020 C.3       1 <0>        -0.1502
      3 C3         -1.4333   -0.5336    0.0129 C.3       1 <0>        -0.0156
      4 N1         -1.4134   -2.0025    0.0048 N.4       1 <0>        -0.5010
      5 C4         -2.7915   -2.5110    0.0152 C.3       1 <0>         0.1167
      6 H1         -3.3444   -2.0792   -0.8190 H         1 <0>         0.1516
      7 C5         -3.4685   -2.1226    1.3312 C.3       1 <0>        -0.1803
      8 C6         -2.7742   -4.0121   -0.1168 C.2       1 <0>         0.0016
      9 C7         -3.8497   -4.6625   -0.6352 C.2       1 <0>        -0.1709
     10 S1         -3.2826   -6.3566   -0.5511 S.3       1 <0>         0.1195
     11 C8         -1.6796   -6.0143    0.1632 C.2       1 <0>         0.1717
     12 N2         -1.7189   -4.6931    0.2633 N.2       1 <0>        -0.5256
     13 C9         -0.5991   -6.9521    0.5370 C.ar      1 <0>        -0.0081
     14 C10         0.5861   -6.4693    1.0931 C.ar      1 <0>        -0.0583
     15 C11         1.5916   -7.3499    1.4401 C.ar      1 <0>        -0.0259
     16 C12         1.4256   -8.7093    1.2372 C.ar      1 <0>        -0.0722
     17 C13         0.2519   -9.1942    0.6858 C.ar      1 <0>        -0.0202
     18 C14        -0.7629   -8.3237    0.3402 C.ar      1 <0>        -0.0761
     19 Cl1         0.0530  -10.9003    0.4345 Cl        1 <0>        -0.0282
     20 Cl2         3.0671   -6.7511    2.1317 Cl        1 <0>        -0.0336
     21 H2          1.0039    1.9031    0.0027 H         1 <0>         0.0778
     22 H3         -0.5459    1.8868   -0.8726 H         1 <0>         0.0671
     23 H4         -0.5289    1.8773    0.9072 H         1 <0>         0.0672
     24 H5          0.5123   -0.3556   -0.8948 H         1 <0>         0.0862
     25 H6          0.5293   -0.3651    0.8851 H         1 <0>         0.0868
     26 H7         -1.9435   -0.1821    0.9097 H         1 <0>         0.1338
     27 H8         -1.9605   -0.1726   -0.8702 H         1 <0>         0.1321
     28 H9         -0.9411   -2.3279   -0.8254 H         1 <0>         0.4295
     29 H10        -4.4911   -2.4999    1.3389 H         1 <0>         0.1071
     30 H11        -2.9156   -2.5543    2.1655 H         1 <0>         0.0846
     31 H12        -3.4811   -1.0368    1.4267 H         1 <0>         0.0900
     32 H13        -4.7868   -4.2661   -0.9971 H         1 <0>         0.2126
     33 H14         0.7168   -5.4090    1.2516 H         1 <0>         0.1493
     34 H15         2.2149   -9.3941    1.5098 H         1 <0>         0.1578
     35 H16        -1.6800   -8.7036   -0.0854 H         1 <0>         0.1470
     36 H17        -0.9254   -2.3367    0.8222 H         1 <0>         0.4326
@<TRIPOS>BOND
     1    1    2 1
     2    1   21 1
     3    1   22 1
     4    1   23 1
     5    2    3 1
     6    2   24 1
     7    2   25 1
     8    3    4 1
     9    3   26 1
    10    3   27 1
    11    4    5 1
    12    4   28 1
    13    4   36 1
    14    5    6 1
    15    5    7 1
    16    5    8 1
    17    7   29 1
    18    7   30 1
    19    7   31 1
    20    8   12 1
    21    8    9 2
    22    9   10 1
    23    9   32 1
    24   10   11 1
    25   11   12 2
    26   11   13 1
    27   13   18 ar
    28   13   14 ar
    29   14   15 ar
    30   14   33 1
    31   15   16 ar
    32   15   20 1
    33   16   17 ar
    34   16   34 1
    35   17   18 ar
    36   17   19 1
    37   18   35 1
@<TRIPOS>MOLECULE
ZINC80803687
   36    37     0     0     0
SMALL
USER_CHARGES

@<TRIPOS>ATOM
      1 C1         -0.0187    1.5258    0.0104 C.3       1 <0>        -0.1560
      2 C2          0.0021   -0.0041    0.0020 C.3       1 <0>        -0.1502
      3 C3         -1.4333   -0.5336    0.0129 C.3       1 <0>        -0.0156
      4 N1         -1.4134   -2.0025    0.0048 N.4       1 <0>        -0.5010
      5 C4         -2.7915   -2.5110    0.0152 C.3       1 <0>         0.1167
      6 H1         -3.3284   -2.0882    0.8645 H         1 <0>         0.1516
      7 C5         -3.4935   -2.1085   -1.2833 C.3       1 <0>        -0.1803
      8 C6         -2.7718   -4.0134    0.1308 C.2       1 <0>         0.0014
      9 C7         -3.8414   -4.6703    0.6533 C.2       1 <0>        -0.1709
     10 S1         -3.2741   -6.3629    0.5450 S.3       1 <0>         0.1197
     11 C8         -1.6788   -6.0117   -0.1822 C.2       1 <0>         0.1715
     12 N2         -1.7244   -4.6903   -0.2776 N.2       1 <0>        -0.5256
     13 C9         -0.6010   -6.9444   -0.5760 C.ar      1 <0>        -0.0080
     14 C10         0.5828   -6.4537   -1.1279 C.ar      1 <0>        -0.0584
     15 C11         1.5858   -7.3296   -1.4938 C.ar      1 <0>        -0.0260
     16 C12         1.4185   -8.6921   -1.3138 C.ar      1 <0>        -0.0722
     17 C13         0.2460   -9.1847   -0.7667 C.ar      1 <0>        -0.0202
     18 C14        -0.7616   -8.3181   -0.3917 C.ar      1 <0>        -0.0761
     19 Cl1         0.0450  -10.8948   -0.5453 Cl        1 <0>        -0.0283
     20 Cl2         3.0592   -6.7211   -2.1812 Cl        1 <0>        -0.0336
     21 H2          1.0039    1.9031    0.0027 H         1 <0>         0.0778
     22 H3         -0.5459    1.8868   -0.8726 H         1 <0>         0.0672
     23 H4         -0.5289    1.8773    0.9072 H         1 <0>         0.0671
     24 H5          0.5123   -0.3556   -0.8948 H         1 <0>         0.0868
     25 H6          0.5293   -0.3651    0.8851 H         1 <0>         0.0862
     26 H7         -1.9435   -0.1821    0.9097 H         1 <0>         0.1321
     27 H8         -1.9605   -0.1726   -0.8702 H         1 <0>         0.1337
     28 H9         -0.9411   -2.3279   -0.8254 H         1 <0>         0.4327
     29 H10        -3.5077   -1.0218   -1.3669 H         1 <0>         0.0900
     30 H11        -2.9566   -2.5312   -2.1326 H         1 <0>         0.0845
     31 H12        -4.5161   -2.4858   -1.2756 H         1 <0>         0.1071
     32 H13        -4.7748   -4.2785    1.0297 H         1 <0>         0.2127
     33 H14         0.7144   -5.3911   -1.2691 H         1 <0>         0.1492
     34 H15         2.2055   -9.3733   -1.6018 H         1 <0>         0.1578
     35 H16        -1.6739   -8.7032    0.0395 H         1 <0>         0.1470
     36 H17        -0.9254   -2.3367    0.8222 H         1 <0>         0.4294
@<TRIPOS>BOND
     1    1    2 1
     2    1   21 1
     3    1   22 1
     4    1   23 1
     5    2    3 1
     6    2   24 1
     7    2   25 1
     8    3    4 1
     9    3   26 1
    10    3   27 1
    11    4    5 1
    12    4   28 1
    13    4   36 1
    14    5    6 1
    15    5    7 1
    16    5    8 1
    17    7   29 1
    18    7   30 1
    19    7   31 1
    20    8   12 1
    21    8    9 2
    22    9   10 1
    23    9   32 1
    24   10   11 1
    25   11   12 2
    26   11   13 1
    27   13   18 ar
    28   13   14 ar
    29   14   15 ar
    30   14   33 1
    31   15   16 ar
    32   15   20 1
    33   16   17 ar
    34   16   34 1
    35   17   18 ar
    36   17   19 1
    37   18   35 1
@<TRIPOS>MOLECULE
ZINC35154813
   30    31     0     0     0
SMALL
USER_CHARGES

@<TRIPOS>ATOM
      1 C1         -0.0187    1.5258    0.0104 C.3       1 <0>        -0.1901
      2 C2          0.0021   -0.0041    0.0020 C.3       1 <0>        -0.0095
      3 N1         -1.3761   -0.5125    0.0124 N.4       1 <0>        -0.5089
      4 C3         -1.3562   -1.9814    0.0044 C.3       1 <0>         0.0779
      5 C4         -2.7700   -2.5030    0.0151 C.2       1 <0>        -0.0090
      6 C5         -3.3825   -2.8334   -1.1525 C.2       1 <0>        -0.1818
      7 S1         -4.9779   -3.3700   -0.5479 S.3       1 <0>         0.0968
      8 C6         -4.6556   -3.0964    1.1894 C.2       1 <0>         0.1841
      9 N2         -3.4100   -2.6442    1.1523 N.2       1 <0>        -0.5082
     10 C7         -5.5386   -3.3197    2.3540 C.ar      1 <0>        -0.0550
     11 C8         -5.0852   -3.0308    3.6420 C.ar      1 <0>        -0.0331
     12 C9         -5.9129   -3.2409    4.7250 C.ar      1 <0>        -0.1555
     13 C10        -7.1925   -3.7384    4.5360 C.ar      1 <0>         0.1392
     14 C11        -7.6476   -4.0269    3.2592 C.ar      1 <0>        -0.1499
     15 C12        -6.8303   -3.8146    2.1688 C.ar      1 <0>        -0.0533
     16 F1         -7.9990   -3.9433    5.6004 F         1 <0>        -0.1240
     17 H1          1.0039    1.9031    0.0027 H         1 <0>         0.1082
     18 H2         -0.5459    1.8868   -0.8726 H         1 <0>         0.0805
     19 H3         -0.5289    1.8773    0.9072 H         1 <0>         0.0807
     20 H4          0.5123   -0.3556   -0.8948 H         1 <0>         0.1325
     21 H5          0.5293   -0.3651    0.8851 H         1 <0>         0.1326
     22 H6         -1.8484   -0.1871    0.8426 H         1 <0>         0.4310
     23 H7         -0.8460   -2.3329   -0.8924 H         1 <0>         0.1458
     24 H8         -0.8290   -2.3425    0.8874 H         1 <0>         0.1451
     25 H9         -3.0094   -2.7849   -2.1649 H         1 <0>         0.2108
     26 H10        -4.0880   -2.6437    3.7904 H         1 <0>         0.1453
     27 H11        -5.5631   -3.0177    5.7221 H         1 <0>         0.1503
     28 H12        -8.6457   -4.4144    3.1174 H         1 <0>         0.1520
     29 H13        -7.1876   -4.0352    1.1738 H         1 <0>         0.1394
     30 H14        -1.8641   -0.1783   -0.8050 H         1 <0>         0.4260
@<TRIPOS>BOND
     1    1    2 1
     2    1   17 1
     3    1   18 1
     4    1   19 1
     5    2    3 1
     6    2   20 1
     7    2   21 1
     8    3    4 1
     9    3   22 1
    10    3   30 1
    11    4    5 1
    12    4   23 1
    13    4   24 1
    14    5    9 1
    15    5    6 2
    16    6    7 1
    17    6   25 1
    18    7    8 1
    19    8    9 2
    20    8   10 1
    21   10   15 ar
    22   10   11 ar
    23   11   12 ar
    24   11   26 1
    25   12   13 ar
    26   12   27 1
    27   13   14 ar
    28   13   16 1
    29   14   15 ar
    30   14   28 1
    31   15   29 1
@<TRIPOS>MOLECULE
ZINC70840217
   27    28     0     0     0
SMALL
USER_CHARGES

@<TRIPOS>ATOM
      1 C1         -0.0187    1.5258    0.0104 C.3       1 <0>        -0.1749
      2 C2          0.0021   -0.0041    0.0020 C.3       1 <0>         0.1093
      3 H1         -1.0205   -0.3814    0.0098 H         1 <0>         0.1579
      4 C3          0.7074   -0.4901   -1.2379 C.2       1 <0>         0.0416
      5 C4          1.7600   -1.3436   -1.1319 C.2       1 <0>        -0.2616
      6 S1          2.1781   -1.5677   -2.8563 S.3       1 <0>         0.1056
      7 C5          0.9087   -0.5028   -3.5283 C.2       1 <0>         0.1978
      8 N1          0.3030   -0.0941   -2.4221 N.2       1 <0>        -0.5013
      9 C6          0.6111   -0.1717   -4.9382 C.ar      1 <0>        -0.0590
     10 C7         -0.4355    0.6983   -5.2473 C.ar      1 <0>        -0.0292
     11 C8         -0.7088    1.0038   -6.5641 C.ar      1 <0>        -0.1557
     12 C9          0.0533    0.4482   -7.5795 C.ar      1 <0>         0.1417
     13 C10         1.0937   -0.4163   -7.2780 C.ar      1 <0>        -0.1511
     14 C11         1.3794   -0.7236   -5.9643 C.ar      1 <0>        -0.0517
     15 F1         -0.2192    0.7500   -8.8678 F         1 <0>        -0.1234
     16 N2          0.7126   -0.4907    1.1921 N.4       1 <0>        -0.6350
     17 H2          1.0039    1.9031    0.0027 H         1 <0>         0.0807
     18 H3         -0.5459    1.8868   -0.8726 H         1 <0>         0.1151
     19 H4         -0.5289    1.8773    0.9072 H         1 <0>         0.0883
     20 H5          2.2173   -1.7685   -0.2505 H         1 <0>         0.1984
     21 H6         -1.0304    1.1313   -4.4567 H         1 <0>         0.1475
     22 H7         -1.5185    1.6770   -6.8044 H         1 <0>         0.1513
     23 H8          1.6845   -0.8466   -8.0731 H         1 <0>         0.1523
     24 H9          2.1935   -1.3936   -5.7302 H         1 <0>         0.1392
     25 H10         0.2403   -0.1653    2.0223 H         1 <0>         0.4442
     26 H11         0.7262   -1.4996    1.1866 H         1 <0>         0.4368
     27 H12         1.6592   -0.1415    1.1850 H         1 <0>         0.4351
@<TRIPOS>BOND
     1    1    2 1
     2    1   17 1
     3    1   18 1
     4    1   19 1
     5    2    3 1
     6    2    4 1
     7    2   16 1
     8    4    8 1
     9    4    5 2
    10    5    6 1
    11    5   20 1
    12    6    7 1
    13    7    8 2
    14    7    9 1
    15    9   14 ar
    16    9   10 ar
    17   10   11 ar
    18   10   21 1
    19   11   12 ar
    20   11   22 1
    21   12   13 ar
    22   12   15 1
    23   13   14 ar
    24   13   23 1
    25   14   24 1
    26   16   25 1
    27   16   26 1
    28   16   27 1
@<TRIPOS>MOLECULE
ZINC70840223
   27    28     0     0     0
SMALL
USER_CHARGES

@<TRIPOS>ATOM
      1 C1         -0.0187    1.5258    0.0104 C.3       1 <0>        -0.1774
      2 C2          0.0021   -0.0041    0.0020 C.3       1 <0>         0.1171
      3 H1         -1.0205   -0.3814    0.0098 H         1 <0>         0.1534
      4 C3          0.7309   -0.5033    1.2229 C.2       1 <0>        -0.0072
      5 C4          0.1265   -1.3833    2.0642 C.2       1 <0>        -0.1761
      6 S1          1.4144   -1.6118    3.2838 S.3       1 <0>         0.0989
      7 C5          2.6142   -0.5131    2.5420 C.2       1 <0>         0.1838
      8 N1          1.9525   -0.0932    1.4727 N.2       1 <0>        -0.5145
      9 C6          3.9787   -0.1697    2.9959 C.ar      1 <0>        -0.0546
     10 C7          4.7559    0.7274    2.2616 C.ar      1 <0>        -0.0340
     11 C8          6.0282    1.0443    2.6894 C.ar      1 <0>        -0.1557
     12 C9          6.5354    0.4733    3.8458 C.ar      1 <0>         0.1394
     13 C10         5.7679   -0.4181    4.5786 C.ar      1 <0>        -0.1495
     14 C11         4.4921   -0.7371    4.1631 C.ar      1 <0>        -0.0532
     15 F1          7.7826    0.7864    4.2600 F         1 <0>        -0.1237
     16 N2          0.6897   -0.4778   -1.2066 N.4       1 <0>        -0.6340
     17 H2          1.0039    1.9031    0.0027 H         1 <0>         0.0899
     18 H3         -0.5459    1.8868   -0.8726 H         1 <0>         0.0865
     19 H4         -0.5289    1.8773    0.9072 H         1 <0>         0.1038
     20 H5         -0.8587   -1.8226    2.0110 H         1 <0>         0.2109
     21 H6          4.3618    1.1724    1.3599 H         1 <0>         0.1443
     22 H7          6.6304    1.7384    2.1220 H         1 <0>         0.1501
     23 H8          6.1679   -0.8603    5.4791 H         1 <0>         0.1521
     24 H9          3.8929   -1.4281    4.7375 H         1 <0>         0.1395
     25 H10         1.6363   -0.1286   -1.2138 H         1 <0>         0.4380
     26 H11         0.7033   -1.4867   -1.2121 H         1 <0>         0.4348
     27 H12         0.2017   -0.1436   -2.0240 H         1 <0>         0.4375
@<TRIPOS>BOND
     1    1    2 1
     2    1   17 1
     3    1   18 1
     4    1   19 1
     5    2    3 1
     6    2    4 1
     7    2   16 1
     8    4    8 1
     9    4    5 2
    10    5    6 1
    11    5   20 1
    12    6    7 1
    13    7    8 2
    14    7    9 1
    15    9   14 ar
    16    9   10 ar
    17   10   11 ar
    18   10   21 1
    19   11   12 ar
    20   11   22 1
    21   12   13 ar
    22   12   15 1
    23   13   14 ar
    24   13   23 1
    25   14   24 1
    26   16   25 1
    27   16   26 1
    28   16   27 1
@<TRIPOS>MOLECULE
ZINC40887222
   30    32     0     0     0
SMALL
USER_CHARGES

@<TRIPOS>ATOM
      1 C1         -0.0167    1.3789    0.0096 C.ar      1 <0>        -0.1027
      2 C2          1.1669    2.0883    0.0021 C.ar      1 <0>        -0.0883
      3 C3          2.3851    1.4080   -0.0131 C.ar      1 <0>        -0.0023
      4 C4          2.3983    0.0125   -0.0207 C.ar      1 <0>        -0.0638
      5 C5          1.2074   -0.6859   -0.0131 C.ar      1 <0>        -0.0365
      6 C6          0.0021   -0.0041    0.0020 C.ar      1 <0>        -0.0917
      7 Cl1         1.2208   -2.4218   -0.0230 Cl        1 <0>        -0.0582
      8 C7          3.6567    2.1625   -0.0217 C.2       1 <0>         0.1534
      9 N1          4.9000    1.7086   -0.0415 N.2       1 <0>        -0.4876
     10 C8          5.9307    2.5323   -0.0471 C.2       1 <0>         0.1174
     11 C9          5.7109    3.8853   -0.0322 C.2       1 <0>        -0.2019
     12 S1          3.9233    3.9301   -0.0160 S.3       1 <0>         0.0228
     13 C10         7.3150    1.9990   -0.0689 C.ar      1 <0>        -0.0930
     14 C11         8.4002    2.8739   -0.0684 C.ar      1 <0>        -0.0510
     15 C12         9.6859    2.3761   -0.0882 C.ar      1 <0>        -0.2000
     16 C13         9.9003    1.0031   -0.1091 C.ar      1 <0>         0.2261
     17 C14         8.8198    0.1288   -0.1096 C.ar      1 <0>        -0.2018
     18 C15         7.5325    0.6222   -0.0841 C.ar      1 <0>        -0.0325
     19 N2         11.2037    0.5010   -0.1301 N.pl3     1 <0>        -0.8758
     20 H1         -0.9599    1.9048    0.0260 H         1 <0>         0.1431
     21 H2          1.1504    3.1681    0.0077 H         1 <0>         0.1346
     22 H3          3.3379   -0.5198   -0.0328 H         1 <0>         0.1467
     23 H4         -0.9271   -0.5545    0.0079 H         1 <0>         0.1407
     24 H5          6.4210    4.6991   -0.0338 H         1 <0>         0.2009
     25 H6          8.2340    3.9410   -0.0529 H         1 <0>         0.1237
     26 H7         10.5270    3.0536   -0.0879 H         1 <0>         0.1240
     27 H8          8.9887   -0.9378   -0.1262 H         1 <0>         0.1232
     28 H9          6.6932   -0.0575   -0.0800 H         1 <0>         0.1315
     29 H10        11.9583    1.1105   -0.1300 H         1 <0>         0.3993
     30 H11        11.3541   -0.4572   -0.1447 H         1 <0>         0.3996
@<TRIPOS>BOND
     1    1    6 ar
     2    1    2 ar
     3    1   20 1
     4    2    3 ar
     5    2   21 1
     6    3    4 ar
     7    3    8 1
     8    4    5 ar
     9    4   22 1
    10    5    6 ar
    11    5    7 1
    12    6   23 1
    13    8   12 1
    14    8    9 2
    15    9   10 1
    16   10   11 2
    17   10   13 1
    18   11   12 1
    19   11   24 1
    20   13   18 ar
    21   13   14 ar
    22   14   15 ar
    23   14   25 1
    24   15   16 ar
    25   15   26 1
    26   16   17 ar
    27   16   19 1
    28   17   18 ar
    29   17   27 1
    30   18   28 1
    31   19   29 1
    32   19   30 1
@<TRIPOS>MOLECULE
ZINC40414590
   31    32     0     0     0
SMALL
USER_CHARGES

@<TRIPOS>ATOM
      1 C1         -0.0187    1.5258    0.0104 C.3       1 <0>        -0.1559
      2 C2          0.0021   -0.0041    0.0020 C.3       1 <0>         0.0500
      3 O1          0.6932   -0.4774    1.1597 O.3       1 <0>        -0.3063
      4 C3          0.8019   -1.8237    1.3056 C.ar      1 <0>         0.1736
      5 C4          0.2580   -2.6702    0.3485 C.ar      1 <0>        -0.2091
      6 C5          0.3662   -4.0368    0.4929 C.ar      1 <0>        -0.0370
      7 C6          1.0237   -4.5695    1.6032 C.ar      1 <0>        -0.0892
      8 C7          1.5691   -3.7153    2.5631 C.ar      1 <0>        -0.0192
      9 C8          1.4617   -2.3498    2.4086 C.ar      1 <0>        -0.1563
     10 C9          1.1416   -6.0344    1.7621 C.2       1 <0>         0.1998
     11 N1          1.7143   -6.7320    2.7333 N.2       1 <0>        -0.5171
     12 C10         1.7256   -8.0446    2.7137 C.2       1 <0>        -0.0098
     13 C11         1.1422   -8.7118    1.6834 C.2       1 <0>        -0.1885
     14 S1          0.5433   -7.3428    0.7006 S.3       1 <0>         0.0827
     15 C12         2.3849   -8.8104    3.8317 C.3       1 <0>         0.0793
     16 N2          3.8230   -8.9342    3.5589 N.4       1 <0>        -0.6348
     17 H1          1.0039    1.9031    0.0027 H         1 <0>         0.0694
     18 H2         -0.5459    1.8868   -0.8726 H         1 <0>         0.0843
     19 H3         -0.5289    1.8773    0.9072 H         1 <0>         0.0696
     20 H4         -1.0205   -0.3814    0.0098 H         1 <0>         0.0685
     21 H5          0.5123   -0.3556   -0.8948 H         1 <0>         0.0683
     22 H6         -0.2508   -2.2573   -0.5100 H         1 <0>         0.1428
     23 H7         -0.0574   -4.6944   -0.2517 H         1 <0>         0.1317
     24 H8          2.0782   -4.1237    3.4236 H         1 <0>         0.1420
     25 H9          1.8873   -1.6882    3.1486 H         1 <0>         0.1452
     26 H10         1.0600   -9.7743    1.5083 H         1 <0>         0.2091
     27 H11         2.2378   -8.2792    4.7720 H         1 <0>         0.1469
     28 H12         1.9416   -9.8038    3.9024 H         1 <0>         0.1477
     29 H13         4.2333   -8.0147    3.4934 H         1 <0>         0.4384
     30 H14         4.2644   -9.4470    4.3074 H         1 <0>         0.4400
     31 H15         3.9591   -9.4260    2.6884 H         1 <0>         0.4336
@<TRIPOS>BOND
     1    1    2 1
     2    1   17 1
     3    1   18 1
     4    1   19 1
     5    2    3 1
     6    2   20 1
     7    2   21 1
     8    3    4 1
     9    4    9 ar
    10    4    5 ar
    11    5    6 ar
    12    5   22 1
    13    6    7 ar
    14    6   23 1
    15    7    8 ar
    16    7   10 1
    17    8    9 ar
    18    8   24 1
    19    9   25 1
    20   10   14 1
    21   10   11 2
    22   11   12 1
    23   12   13 2
    24   12   15 1
    25   13   14 1
    26   13   26 1
    27   15   16 1
    28   15   27 1
    29   15   28 1
    30   16   29 1
    31   16   30 1
    32   16   31 1
@<TRIPOS>MOLECULE
ZINC04277411
   30    31     0     0     0
SMALL
USER_CHARGES
N-[[2-[4-(trifluoromethyl)phenyl]thiazol-4-yl]methyl]methanamine
@<TRIPOS>ATOM
      1 C1          7.8887    2.2369   -1.4822 C.3       1 <0>        -0.0427
      2 C2          6.1463    1.3551   -0.0507 C.3       1 <0>         0.0805
      3 C3          4.7573    0.7705   -0.0399 C.2       1 <0>        -0.0124
      4 C4          4.5861   -0.5782   -0.0456 C.2       1 <0>        -0.1767
      5 S1          2.8009   -0.6842   -0.0217 S.3       1 <0>         0.1106
      6 C5          2.4785    1.0744   -0.0164 C.2       1 <0>         0.1686
      7 N1          3.7110    1.5624   -0.0256 N.2       1 <0>        -0.4996
      8 C6          1.1854    1.7914    0.0004 C.ar      1 <0>        -0.0066
      9 C7         -0.0126    1.0758    0.0080 C.ar      1 <0>        -0.0867
     10 C8         -1.2158    1.7509    0.0173 C.ar      1 <0>        -0.0637
     11 C9         -1.2362    3.1342    0.0308 C.ar      1 <0>        -0.1509
     12 C10        -0.0520    3.8496    0.0233 C.ar      1 <0>        -0.0686
     13 C11         1.1578    3.1866    0.0082 C.ar      1 <0>        -0.0664
     14 C12        -2.5541    3.8649    0.0473 C.3       1 <0>         0.5058
     15 F1         -2.9745    4.0982   -1.2664 F         1 <0>        -0.1705
     16 F2         -3.5095    3.0885    0.7118 F         1 <0>        -0.1710
     17 F3         -2.4017    5.0865    0.7120 F         1 <0>        -0.1716
     18 H1          7.9150    3.1566   -0.8977 H         1 <0>         0.1244
     19 H2          8.6012    1.5231   -1.0687 H         1 <0>         0.1243
     20 H3          8.1527    2.4561   -2.5167 H         1 <0>         0.1268
     21 H4          6.1605    2.2687    0.5437 H         1 <0>         0.1449
     22 H5          6.8467    0.6352    0.3727 H         1 <0>         0.1458
     23 H6          5.3237   -1.3670   -0.0574 H         1 <0>         0.2125
     24 H7          0.0021   -0.0041    0.0020 H         1 <0>         0.1417
     25 H8         -2.1437    1.1982    0.0187 H         1 <0>         0.1522
     26 H9         -0.0748    4.9293    0.0297 H         1 <0>         0.1505
     27 H10         2.0815    3.7462    0.0020 H         1 <0>         0.1476
     28 N2          6.5307    1.6622   -1.4413 N.4       1 <0>        -0.5188
     29 H11         6.5115    0.7987   -1.9965 H         1 <0>         0.4327
     30 H12         5.8652    2.3374   -1.8354 H         1 <0>         0.4376
@<TRIPOS>BOND
     1    1   18 1
     2    1   19 1
     3    1   20 1
     4    1   28 1
     5    2    3 1
     6    2   21 1
     7    2   22 1
     8    2   28 1
     9    3    7 1
    10    3    4 2
    11    4    5 1
    12    4   23 1
    13    5    6 1
    14    6    7 2
    15    6    8 1
    16    8   13 ar
    17    8    9 ar
    18    9   10 ar
    19    9   24 1
    20   10   11 ar
    21   10   25 1
    22   11   12 ar
    23   11   14 1
    24   12   13 ar
    25   12   26 1
    26   13   27 1
    27   14   15 1
    28   14   16 1
    29   14   17 1
    30   28   29 1
    31   28   30 1
@<TRIPOS>MOLECULE
ZINC11568384
   30    31     0     0     0
SMALL
USER_CHARGES
(1R)-1-[2-(m-tolyl)thiazol-4-yl]ethanamine
@<TRIPOS>ATOM
      1 C1          2.4868    1.0476   -0.0166 C.3       1 <0>        -0.1229
      2 C2          1.1717    1.7832    0.0004 C.ar      1 <0>        -0.0771
      3 C3          1.1546    3.1668    0.0081 C.ar      1 <0>        -0.0852
      4 C4         -0.0484    3.8497    0.0228 C.ar      1 <0>        -0.1154
      5 C5         -1.2400    3.1539    0.0305 C.ar      1 <0>        -0.0709
      6 C6         -1.2297    1.7587    0.0174 C.ar      1 <0>        -0.0387
      7 C7         -0.0126    1.0758    0.0080 C.ar      1 <0>        -0.0868
      8 C8         -2.5030    1.0068    0.0193 C.2       1 <0>         0.1876
      9 N1         -3.7483    1.4610    0.0331 N.2       1 <0>        -0.5154
     10 C9         -4.7727    0.6410    0.0285 C.2       1 <0>        -0.0075
     11 C10        -4.5650   -0.7026    0.0205 C.2       1 <0>        -0.1797
     12 S1         -2.7775   -0.7600    0.0115 S.3       1 <0>         0.0926
     13 C11        -6.1771    1.1876    0.0382 C.3       1 <0>         0.1214
     14 H1         -6.8866    0.3649    0.1270 H         1 <0>         0.1508
     15 C12        -6.3465    2.1375    1.2255 C.3       1 <0>        -0.1748
     16 H2          2.7938    0.8761   -1.0483 H         1 <0>         0.0788
     17 H3          3.2434    1.6440    0.4933 H         1 <0>         0.0756
     18 H4          2.3744    0.0906    0.4929 H         1 <0>         0.0717
     19 H5          2.0845    3.7161    0.0022 H         1 <0>         0.1354
     20 H6         -0.0549    4.9296    0.0280 H         1 <0>         0.1367
     21 H7         -2.1785    3.6881    0.0420 H         1 <0>         0.1329
     22 H8          0.0021   -0.0041    0.0020 H         1 <0>         0.1282
     23 H9         -5.2810   -1.5112    0.0202 H         1 <0>         0.2100
     24 H10        -5.6370    2.9602    1.1368 H         1 <0>         0.0894
     25 H11        -7.3622    2.5328    1.2325 H         1 <0>         0.0857
     26 H12        -6.1609    1.5962    2.1532 H         1 <0>         0.1032
     27 H13        -7.3631    2.2937   -1.2300 H         1 <0>         0.4389
     28 H14        -5.7420    2.6449   -1.3494 H         1 <0>         0.4398
     29 N2         -6.4244    1.8983   -1.2288 N.4       1 <0>        -0.6429
     30 H15        -6.3385    1.2366   -2.0092 H         1 <0>         0.4386
@<TRIPOS>BOND
     1    1    2 1
     2    1   16 1
     3    1   17 1
     4    1   18 1
     5    2    7 ar
     6    2    3 ar
     7    3    4 ar
     8    3   19 1
     9    4    5 ar
    10    4   20 1
    11    5    6 ar
    12    5   21 1
    13    6    7 ar
    14    6    8 1
    15    7   22 1
    16    8   12 1
    17    8    9 2
    18    9   10 1
    19   10   11 2
    20   10   13 1
    21   11   12 1
    22   11   23 1
    23   13   14 1
    24   13   15 1
    25   13   29 1
    26   15   24 1
    27   15   25 1
    28   15   26 1
    29   27   29 1
    30   28   29 1
    31   29   30 1
@<TRIPOS>MOLECULE
ZINC11568385
   30    31     0     0     0
SMALL
USER_CHARGES
(1S)-1-[2-(m-tolyl)thiazol-4-yl]ethanamine
@<TRIPOS>ATOM
      1 C1          4.0250    7.1166    0.0007 C.3       1 <0>        -0.1221
      2 C2          2.5572    6.7755    0.0134 C.ar      1 <0>        -0.0793
      3 C3          1.6133    7.7872    0.0274 C.ar      1 <0>        -0.0826
      4 C4          0.2641    7.4825    0.0386 C.ar      1 <0>        -0.1155
      5 C5         -0.1491    6.1660    0.0300 C.ar      1 <0>        -0.0658
      6 C6          0.7976    5.1410    0.0217 C.ar      1 <0>        -0.0433
      7 C7          2.1574    5.4552    0.0104 C.ar      1 <0>        -0.0851
      8 C8          0.3620    3.7279    0.0186 C.2       1 <0>         0.2021
      9 N1         -0.8647    3.2257    0.0277 N.2       1 <0>        -0.5033
     10 C9         -1.0705    1.9297    0.0166 C.2       1 <0>         0.0415
     11 C10        -0.0126    1.0758    0.0080 C.2       1 <0>        -0.2649
     12 S1          1.3481    2.2365    0.0012 S.3       1 <0>         0.0992
     13 C11        -2.4771    1.3888    0.0190 C.3       1 <0>         0.1137
     14 H1         -2.9756    1.6688   -0.9090 H         1 <0>         0.1586
     15 C12        -3.2456    1.9715    1.2067 C.3       1 <0>        -0.1755
     16 H2          4.3688    7.2042   -1.0299 H         1 <0>         0.0787
     17 H3          4.1825    8.0631    0.5180 H         1 <0>         0.0755
     18 H4          4.5854    6.3293    0.5050 H         1 <0>         0.0711
     19 H5          1.9315    8.8193    0.0293 H         1 <0>         0.1359
     20 H6         -0.4676    8.2768    0.0496 H         1 <0>         0.1379
     21 H7         -1.2028    5.9294    0.0339 H         1 <0>         0.1361
     22 H8          2.8950    4.6664   -0.0009 H         1 <0>         0.1279
     23 H9          0.0021   -0.0041    0.0020 H         1 <0>         0.1977
     24 H10        -3.2743    3.0579    1.1232 H         1 <0>         0.1145
     25 H11        -4.2630    1.5802    1.2084 H         1 <0>         0.0879
     26 H12        -2.7471    1.6914    2.1347 H         1 <0>         0.0801
     27 H13        -3.3702   -0.4625    0.1353 H         1 <0>         0.4456
     28 H14        -1.8817   -0.4802   -0.6062 H         1 <0>         0.4380
     29 N2         -2.4272   -0.0777    0.1541 N.4       1 <0>        -0.6438
     30 H15        -1.9845   -0.3194    1.0485 H         1 <0>         0.4391
@<TRIPOS>BOND
     1    1    2 1
     2    1   16 1
     3    1   17 1
     4    1   18 1
     5    2    7 ar
     6    2    3 ar
     7    3    4 ar
     8    3   19 1
     9    4    5 ar
    10    4   20 1
    11    5    6 ar
    12    5   21 1
    13    6    7 ar
    14    6    8 1
    15    7   22 1
    16    8   12 1
    17    8    9 2
    18    9   10 1
    19   10   11 2
    20   10   13 1
    21   11   12 1
    22   11   23 1
    23   13   14 1
    24   13   15 1
    25   13   29 1
    26   15   24 1
    27   15   25 1
    28   15   26 1
    29   27   29 1
    30   28   29 1
    31   29   30 1
@<TRIPOS>MOLECULE
ZINC40415672
   36    37     0     0     0
SMALL
USER_CHARGES

@<TRIPOS>ATOM
      1 C1         -0.0187    1.5258    0.0104 C.3       1 <0>        -0.1564
      2 C2          0.0021   -0.0041    0.0020 C.3       1 <0>        -0.1515
      3 C3         -1.4333   -0.5336    0.0129 C.3       1 <0>        -0.0102
      4 N1         -1.4134   -2.0025    0.0048 N.4       1 <0>        -0.5084
      5 C4         -2.7915   -2.5110    0.0152 C.3       1 <0>         0.0782
      6 C5         -2.7711   -4.0178    0.0069 C.2       1 <0>        -0.0079
      7 C6         -2.8583   -4.7064    1.1760 C.2       1 <0>        -0.1858
      8 S1         -2.7866   -6.3890    0.5739 S.3       1 <0>         0.0892
      9 C7         -2.6487   -5.9924   -1.1641 C.2       1 <0>         0.1904
     10 N2         -2.6745   -4.6675   -1.1290 N.2       1 <0>        -0.5119
     11 C8         -2.5406   -6.8985   -2.3277 C.ar      1 <0>        -0.0526
     12 C9         -2.4351   -6.3742   -3.6167 C.ar      1 <0>        -0.0571
     13 C10        -2.3346   -7.2250   -4.6981 C.ar      1 <0>        -0.1239
     14 C11        -2.3386   -8.5952   -4.5068 C.ar      1 <0>        -0.0444
     15 C12        -2.4434   -9.1214   -3.2315 C.ar      1 <0>        -0.1183
     16 C13        -2.5378   -8.2814   -2.1411 C.ar      1 <0>        -0.0776
     17 C14        -2.2289   -9.5186   -5.6927 C.3       1 <0>        -0.1279
     18 H1          1.0039    1.9031    0.0027 H         1 <0>         0.0776
     19 H2         -0.5459    1.8868   -0.8726 H         1 <0>         0.0676
     20 H3         -0.5289    1.8773    0.9072 H         1 <0>         0.0674
     21 H4          0.5123   -0.3556   -0.8948 H         1 <0>         0.0863
     22 H5          0.5293   -0.3651    0.8851 H         1 <0>         0.0861
     23 H6         -1.9435   -0.1821    0.9097 H         1 <0>         0.1330
     24 H7         -1.9605   -0.1726   -0.8702 H         1 <0>         0.1331
     25 H8         -0.9411   -2.3279   -0.8254 H         1 <0>         0.4311
     26 H9         -3.3017   -2.1594    0.9120 H         1 <0>         0.1454
     27 H10        -3.3187   -2.1499   -0.8678 H         1 <0>         0.1447
     28 H11        -2.9462   -4.3392    2.1878 H         1 <0>         0.2096
     29 H12        -2.4325   -5.3047   -3.7673 H         1 <0>         0.1344
     30 H13        -2.2529   -6.8205   -5.6961 H         1 <0>         0.1360
     31 H14        -2.4463  -10.1919   -3.0889 H         1 <0>         0.1378
     32 H15        -2.6143   -8.6933   -1.1457 H         1 <0>         0.1287
     33 H16        -1.1786   -9.7320   -5.8911 H         1 <0>         0.0814
     34 H17        -2.7546  -10.4491   -5.4785 H         1 <0>         0.0752
     35 H18        -2.6743   -9.0425   -6.5663 H         1 <0>         0.0747
     36 H19        -0.9254   -2.3367    0.8222 H         1 <0>         0.4260
@<TRIPOS>BOND
     1    1    2 1
     2    1   18 1
     3    1   19 1
     4    1   20 1
     5    2    3 1
     6    2   21 1
     7    2   22 1
     8    3    4 1
     9    3   23 1
    10    3   24 1
    11    4    5 1
    12    4   25 1
    13    4   36 1
    14    5    6 1
    15    5   26 1
    16    5   27 1
    17    6   10 1
    18    6    7 2
    19    7    8 1
    20    7   28 1
    21    8    9 1
    22    9   10 2
    23    9   11 1
    24   11   16 ar
    25   11   12 ar
    26   12   13 ar
    27   12   29 1
    28   13   14 ar
    29   13   30 1
    30   14   15 ar
    31   14   17 1
    32   15   16 ar
    33   15   31 1
    34   16   32 1
    35   17   33 1
    36   17   34 1
    37   17   35 1
@<TRIPOS>MOLECULE
ZINC70842513
   33    34     0     0     0
SMALL
USER_CHARGES

@<TRIPOS>ATOM
      1 C1         -0.0184    1.5028    0.0103 C.3       1 <0>        -0.1194
      2 C2          0.0021   -0.0041    0.0020 C.ar      1 <0>        -0.0793
      3 C3          0.0058   -0.6877   -1.2008 C.ar      1 <0>        -0.0876
      4 C4          0.0245   -2.0710   -1.2171 C.ar      1 <0>        -0.0722
      5 C5          0.0401   -2.7777   -0.0322 C.ar      1 <0>        -0.0930
      6 C6          0.0369   -2.0941    1.1844 C.ar      1 <0>        -0.0339
      7 C7          0.0228   -0.6988    1.1938 C.ar      1 <0>        -0.0727
      8 C8          0.0530   -2.8452    2.4581 C.2       1 <0>         0.1886
      9 N1          0.0475   -2.3902    3.7031 N.2       1 <0>        -0.5160
     10 C9          0.0639   -3.2095    4.7281 C.2       1 <0>        -0.0072
     11 C10         0.0869   -4.5531    4.5211 C.2       1 <0>        -0.1793
     12 S1          0.0771   -4.6117    2.7336 S.3       1 <0>         0.0934
     13 C11         0.0577   -2.6621    6.1321 C.3       1 <0>         0.1173
     14 H1          0.1633   -3.4822    6.8423 H         1 <0>         0.1530
     15 C12         1.2227   -1.6854    6.3039 C.3       1 <0>        -0.1772
     16 N2         -1.2095   -1.9610    6.3787 N.4       1 <0>        -0.6340
     17 C13         0.0274   -2.8075   -2.5318 C.3       1 <0>        -0.1224
     18 H2          1.0042    1.8801    0.0026 H         1 <0>         0.0776
     19 H3         -0.5455    1.8639   -0.8728 H         1 <0>         0.0742
     20 H4         -0.5286    1.8543    0.9071 H         1 <0>         0.0692
     21 H5         -0.0064   -0.1392   -2.1310 H         1 <0>         0.1348
     22 H6          0.0543   -3.8575   -0.0462 H         1 <0>         0.1279
     23 H7          0.0241   -0.1639    2.1321 H         1 <0>         0.1327
     24 H8          0.1025   -5.3611    5.2376 H         1 <0>         0.2101
     25 H9          1.2182   -1.2894    7.3194 H         1 <0>         0.0862
     26 H10         2.1629   -2.2056    6.1209 H         1 <0>         0.1035
     27 H11         1.1170   -0.8653    5.5937 H         1 <0>         0.0898
     28 H12        -1.9778   -2.6052    6.2654 H         1 <0>         0.4346
     29 H13        -1.2137   -1.5945    7.3188 H         1 <0>         0.4372
     30 H14         1.0556   -2.9711   -2.8544 H         1 <0>         0.0791
     31 H15        -0.4728   -3.7684   -2.4111 H         1 <0>         0.0717
     32 H16        -0.4986   -2.2157   -3.2809 H         1 <0>         0.0752
     33 H17        -1.3073   -1.2019    5.7213 H         1 <0>         0.4380
@<TRIPOS>BOND
     1    1    2 1
     2    1   18 1
     3    1   19 1
     4    1   20 1
     5    2    7 ar
     6    2    3 ar
     7    3    4 ar
     8    3   21 1
     9    4    5 ar
    10    4   17 1
    11    5    6 ar
    12    5   22 1
    13    6    7 ar
    14    6    8 1
    15    7   23 1
    16    8   12 1
    17    8    9 2
    18    9   10 1
    19   10   11 2
    20   10   13 1
    21   11   12 1
    22   11   24 1
    23   13   14 1
    24   13   15 1
    25   13   16 1
    26   15   25 1
    27   15   26 1
    28   15   27 1
    29   16   28 1
    30   16   29 1
    31   16   33 1
    32   17   30 1
    33   17   31 1
    34   17   32 1
@<TRIPOS>MOLECULE
ZINC80804076
   37    39     0     0     0
SMALL
USER_CHARGES

@<TRIPOS>ATOM
      1 C1         -0.0187    1.5258    0.0104 C.3       1 <0>        -0.1746
      2 C2          0.0021   -0.0041    0.0020 C.3       1 <0>         0.1093
      3 H1          0.5123   -0.3556   -0.8948 H         1 <0>         0.1574
      4 C3          0.7309   -0.5033    1.2229 C.2       1 <0>         0.0428
      5 C4          0.1262   -1.3836    2.0646 C.2       1 <0>        -0.2657
      6 S1          1.4140   -1.6115    3.2846 S.3       1 <0>         0.0988
      7 C5          2.6136   -0.5126    2.5427 C.2       1 <0>         0.2026
      8 N1          1.9520   -0.0934    1.4727 N.2       1 <0>        -0.5044
      9 C6          3.9772   -0.1689    2.9965 C.ar      1 <0>        -0.0528
     10 C7          4.7531    0.7292    2.2602 C.ar      1 <0>        -0.0514
     11 C8          6.0233    1.0492    2.6841 C.ar      1 <0>        -0.1178
     12 C9          6.5354    0.4768    3.8485 C.ar      1 <0>         0.0051
     13 C10         5.7614   -0.4206    4.5843 C.ar      1 <0>        -0.1132
     14 C11         4.4888   -0.7374    4.1651 C.ar      1 <0>        -0.0743
     15 C12         7.9036    0.8221    4.3042 C.ar      1 <0>        -0.0698
     16 C13         8.6777    1.7226    3.5741 C.ar      1 <0>        -0.1013
     17 C14         9.9502    2.0406    4.0032 C.ar      1 <0>        -0.1182
     18 C15        10.4580    1.4673    5.1552 C.ar      1 <0>        -0.1047
     19 C16         9.6943    0.5731    5.8838 C.ar      1 <0>        -0.1180
     20 C17         8.4184    0.2520    5.4674 C.ar      1 <0>        -0.1014
     21 N2         -1.3761   -0.5125    0.0124 N.4       1 <0>        -0.6348
     22 H2          1.0039    1.9031    0.0027 H         1 <0>         0.1150
     23 H3         -0.5459    1.8868   -0.8726 H         1 <0>         0.0879
     24 H4         -0.5289    1.8773    0.9072 H         1 <0>         0.0805
     25 H5         -0.8589   -1.8230    2.0114 H         1 <0>         0.1973
     26 H6          4.3569    1.1722    1.3584 H         1 <0>         0.1389
     27 H7          6.6236    1.7433    2.1146 H         1 <0>         0.1397
     28 H8          6.1589   -0.8635    5.4855 H         1 <0>         0.1406
     29 H9          3.8879   -1.4285    4.7376 H         1 <0>         0.1307
     30 H10         8.2826    2.1703    2.6742 H         1 <0>         0.1272
     31 H11        10.5509    2.7382    3.4384 H         1 <0>         0.1289
     32 H12        11.4546    1.7186    5.4869 H         1 <0>         0.1280
     33 H13        10.0959    0.1285    6.7824 H         1 <0>         0.1291
     34 H14         7.8214   -0.4429    6.0394 H         1 <0>         0.1274
     35 H15        -1.8641   -0.1783   -0.8050 H         1 <0>         0.4437
     36 H16        -1.3624   -1.5214    0.0069 H         1 <0>         0.4367
     37 H17        -1.8484   -0.1871    0.8426 H         1 <0>         0.4350
@<TRIPOS>BOND
     1    1    2 1
     2    1   22 1
     3    1   23 1
     4    1   24 1
     5    2    3 1
     6    2    4 1
     7    2   21 1
     8    4    8 1
     9    4    5 2
    10    5    6 1
    11    5   25 1
    12    6    7 1
    13    7    8 2
    14    7    9 1
    15    9   14 ar
    16    9   10 ar
    17   10   11 ar
    18   10   26 1
    19   11   12 ar
    20   11   27 1
    21   12   13 ar
    22   12   15 1
    23   13   14 ar
    24   13   28 1
    25   14   29 1
    26   15   20 ar
    27   15   16 ar
    28   16   17 ar
    29   16   30 1
    30   17   18 ar
    31   17   31 1
    32   18   19 ar
    33   18   32 1
    34   19   20 ar
    35   19   33 1
    36   20   34 1
    37   21   35 1
    38   21   36 1
    39   21   37 1
@<TRIPOS>MOLECULE
ZINC80804079
   37    39     0     0     0
SMALL
USER_CHARGES

@<TRIPOS>ATOM
      1 C1         -0.0187    1.5258    0.0104 C.3       1 <0>        -0.1771
      2 C2          0.0021   -0.0041    0.0020 C.3       1 <0>         0.1171
      3 H1         -1.0205   -0.3814    0.0098 H         1 <0>         0.1528
      4 C3          0.7309   -0.5033    1.2229 C.2       1 <0>        -0.0060
      5 C4          0.1262   -1.3836    2.0646 C.2       1 <0>        -0.1802
      6 S1          1.4140   -1.6115    3.2846 S.3       1 <0>         0.0922
      7 C5          2.6136   -0.5126    2.5427 C.2       1 <0>         0.1886
      8 N1          1.9520   -0.0934    1.4727 N.2       1 <0>        -0.5176
      9 C6          3.9772   -0.1689    2.9965 C.ar      1 <0>        -0.0486
     10 C7          4.7531    0.7292    2.2602 C.ar      1 <0>        -0.0562
     11 C8          6.0233    1.0492    2.6841 C.ar      1 <0>        -0.1177
     12 C9          6.5354    0.4768    3.8485 C.ar      1 <0>         0.0032
     13 C10         5.7614   -0.4206    4.5843 C.ar      1 <0>        -0.1117
     14 C11         4.4888   -0.7374    4.1651 C.ar      1 <0>        -0.0759
     15 C12         7.9036    0.8221    4.3042 C.ar      1 <0>        -0.0699
     16 C13         8.6777    1.7226    3.5741 C.ar      1 <0>        -0.1019
     17 C14         9.9502    2.0406    4.0032 C.ar      1 <0>        -0.1183
     18 C15        10.4580    1.4673    5.1552 C.ar      1 <0>        -0.1046
     19 C16         9.6943    0.5731    5.8838 C.ar      1 <0>        -0.1175
     20 C17         8.4184    0.2520    5.4674 C.ar      1 <0>        -0.1015
     21 N2          0.6897   -0.4778   -1.2066 N.4       1 <0>        -0.6340
     22 H2          1.0039    1.9031    0.0027 H         1 <0>         0.0899
     23 H3         -0.5459    1.8868   -0.8726 H         1 <0>         0.0861
     24 H4         -0.5289    1.8773    0.9072 H         1 <0>         0.1035
     25 H5         -0.8589   -1.8230    2.0114 H         1 <0>         0.2097
     26 H6          4.3569    1.1722    1.3584 H         1 <0>         0.1357
     27 H7          6.6236    1.7433    2.1146 H         1 <0>         0.1385
     28 H8          6.1589   -0.8635    5.4855 H         1 <0>         0.1403
     29 H9          3.8879   -1.4285    4.7376 H         1 <0>         0.1309
     30 H10         8.2826    2.1703    2.6742 H         1 <0>         0.1265
     31 H11        10.5509    2.7382    3.4384 H         1 <0>         0.1288
     32 H12        11.4546    1.7186    5.4869 H         1 <0>         0.1281
     33 H13        10.0959    0.1285    6.7824 H         1 <0>         0.1293
     34 H14         7.8214   -0.4429    6.0394 H         1 <0>         0.1275
     35 H15         0.7033   -1.4867   -1.2121 H         1 <0>         0.4346
     36 H16         0.2017   -0.1436   -2.0240 H         1 <0>         0.4371
     37 H17         1.6363   -0.1286   -1.2138 H         1 <0>         0.4380
@<TRIPOS>BOND
     1    1    2 1
     2    1   22 1
     3    1   23 1
     4    1   24 1
     5    2    3 1
     6    2    4 1
     7    2   21 1
     8    4    8 1
     9    4    5 2
    10    5    6 1
    11    5   25 1
    12    6    7 1
    13    7    8 2
    14    7    9 1
    15    9   14 ar
    16    9   10 ar
    17   10   11 ar
    18   10   26 1
    19   11   12 ar
    20   11   27 1
    21   12   13 ar
    22   12   15 1
    23   13   14 ar
    24   13   28 1
    25   14   29 1
    26   15   20 ar
    27   15   16 ar
    28   16   17 ar
    29   16   30 1
    30   17   18 ar
    31   17   31 1
    32   18   19 ar
    33   18   32 1
    34   19   20 ar
    35   19   33 1
    36   20   34 1
    37   21   35 1
    38   21   36 1
    39   21   37 1
@<TRIPOS>MOLECULE
ZINC83251803
   28    29     0     0     0
SMALL
USER_CHARGES

@<TRIPOS>ATOM
      1 C1          2.0153   -1.9945    2.0090 C.3       1 <0>        -0.1133
      2 C2          0.9784   -1.6821    0.9610 C.ar      1 <0>        -0.0361
      3 C3          1.0386   -2.2927   -0.2750 C.ar      1 <0>        -0.1229
      4 C4          0.0873   -2.0073   -1.2378 C.ar      1 <0>        -0.0937
      5 C5         -0.9299   -1.1085   -0.9691 C.ar      1 <0>        -0.1255
      6 C6         -1.0014   -0.4913    0.2625 C.ar      1 <0>        -0.0831
      7 C7         -0.0480   -0.7791    1.2403 C.ar      1 <0>        -0.0246
      8 C8         -0.1219   -0.1254    2.5646 C.2       1 <0>         0.1621
      9 N1         -0.0070   -0.6577    3.7732 N.2       1 <0>        -0.4847
     10 C9         -0.1003    0.0802    4.8543 C.2       1 <0>         0.0539
     11 C10        -0.3189    1.4176    4.7451 C.2       1 <0>        -0.1767
     12 S1         -0.3825    1.5972    2.9668 S.3       1 <0>         0.0123
     13 C11         0.0343   -0.5540    6.2148 C.3       1 <0>         0.1294
     14 N2         -1.2675   -1.0879    6.6371 N.3       1 <0>        -0.5340
     15 N3         -1.1755   -1.7087    7.9486 N.3       1 <0>        -0.7011
     16 H1          1.6406   -2.7769    2.6689 H         1 <0>         0.0806
     17 H2          2.9303   -2.3351    1.5245 H         1 <0>         0.0676
     18 H3          2.2248   -1.0974    2.5915 H         1 <0>         0.0645
     19 H4          1.8304   -2.9946   -0.4912 H         1 <0>         0.1312
     20 H5          0.1389   -2.4879   -2.2036 H         1 <0>         0.1294
     21 H6         -1.6691   -0.8895   -1.7254 H         1 <0>         0.1314
     22 H7         -1.7958    0.2100    0.4710 H         1 <0>         0.1281
     23 H8         -0.4211    2.1651    5.5178 H         1 <0>         0.1996
     24 H9          0.7614   -1.3646    6.1675 H         1 <0>         0.0574
     25 H10         0.3703    0.1941    6.9328 H         1 <0>         0.0870
     26 H11        -1.6309   -1.7363    5.9548 H         1 <0>         0.3544
     27 H12        -0.8120   -1.0602    8.6309 H         1 <0>         0.3516
     28 H13        -2.0696   -2.0754    8.2387 H         1 <0>         0.3550
@<TRIPOS>BOND
     1    1    2 1
     2    1   16 1
     3    1   17 1
     4    1   18 1
     5    2    7 ar
     6    2    3 ar
     7    3    4 ar
     8    3   19 1
     9    4    5 ar
    10    4   20 1
    11    5    6 ar
    12    5   21 1
    13    6    7 ar
    14    6   22 1
    15    7    8 1
    16    8   12 1
    17    8    9 2
    18    9   10 1
    19   10   11 2
    20   10   13 1
    21   11   12 1
    22   11   23 1
    23   13   14 1
    24   13   24 1
    25   13   25 1
    26   14   15 1
    27   14   26 1
    28   15   27 1
    29   15   28 1
@<TRIPOS>MOLECULE
ZINC83251803
   29    30     0     0     0
SMALL
USER_CHARGES

@<TRIPOS>ATOM
      1 C1          2.0153   -1.9945    2.0090 C.3       1 <0>        -0.1127
      2 C2          0.9784   -1.6821    0.9610 C.ar      1 <0>        -0.0332
      3 C3          1.0386   -2.2927   -0.2750 C.ar      1 <0>        -0.1216
      4 C4          0.0873   -2.0073   -1.2378 C.ar      1 <0>        -0.0832
      5 C5         -0.9299   -1.1085   -0.9691 C.ar      1 <0>        -0.1228
      6 C6         -1.0014   -0.4913    0.2625 C.ar      1 <0>        -0.0795
      7 C7         -0.0480   -0.7791    1.2403 C.ar      1 <0>        -0.0425
      8 C8         -0.1219   -0.1254    2.5646 C.2       1 <0>         0.1858
      9 N1         -0.0070   -0.6577    3.7732 N.2       1 <0>        -0.4845
     10 C9         -0.1003    0.0802    4.8543 C.2       1 <0>         0.0382
     11 C10        -0.3189    1.4176    4.7451 C.2       1 <0>        -0.1979
     12 S1         -0.3825    1.5972    2.9668 S.3       1 <0>         0.0683
     13 C11         0.0343   -0.5540    6.2148 C.3       1 <0>         0.0931
     14 N2         -1.2675   -1.0879    6.6371 N.3       1 <0>        -0.4838
     15 N3         -1.1755   -1.7087    7.9486 N.4       1 <0>        -0.4975
     16 H1          1.6406   -2.7769    2.6689 H         1 <0>         0.0794
     17 H2          2.9303   -2.3351    1.5245 H         1 <0>         0.0716
     18 H3          2.2248   -1.0974    2.5915 H         1 <0>         0.0616
     19 H4          1.8304   -2.9946   -0.4912 H         1 <0>         0.1349
     20 H5          0.1389   -2.4879   -2.2036 H         1 <0>         0.1342
     21 H6         -1.6691   -0.8895   -1.7254 H         1 <0>         0.1357
     22 H7         -1.7958    0.2100    0.4710 H         1 <0>         0.1288
     23 H8         -0.4211    2.1651    5.5178 H         1 <0>         0.2027
     24 H9          0.7614   -1.3646    6.1675 H         1 <0>         0.1239
     25 H10         0.3703    0.1941    6.9328 H         1 <0>         0.0898
     26 H11        -1.9743   -0.3678    6.6266 H         1 <0>         0.3963
     27 H12        -0.5101   -2.4665    7.9161 H         1 <0>         0.4522
     28 H13        -0.8721   -1.0236    8.6245 H         1 <0>         0.4111
     29 H14        -2.0803   -2.0667    8.2155 H         1 <0>         0.4518
@<TRIPOS>BOND
     1    1    2 1
     2    1   16 1
     3    1   17 1
     4    1   18 1
     5    2    7 ar
     6    2    3 ar
     7    3    4 ar
     8    3   19 1
     9    4    5 ar
    10    4   20 1
    11    5    6 ar
    12    5   21 1
    13    6    7 ar
    14    6   22 1
    15    7    8 1
    16    8   12 1
    17    8    9 2
    18    9   10 1
    19   10   11 2
    20   10   13 1
    21   11   12 1
    22   11   23 1
    23   13   14 1
    24   13   24 1
    25   13   25 1
    26   14   15 1
    27   14   26 1
    28   15   27 1
    29   15   28 1
    30   15   29 1
@<TRIPOS>MOLECULE
ZINC94523928
   34    36     0     0     0
SMALL
USER_CHARGES

@<TRIPOS>ATOM
      1 C1         -0.0178    1.4648    0.0101 C.3       1 <0>        -0.0467
      2 N1          0.0021   -0.0041    0.0020 N.4       1 <0>        -0.5084
      3 C2          0.6897   -0.4778   -1.2066 C.3       1 <0>         0.0769
      4 C3          0.7101   -1.9847   -1.2149 C.2       1 <0>        -0.0091
      5 C4         -0.2481   -2.6750   -1.8886 C.2       1 <0>        -0.1858
      6 S1          0.2638   -4.3567   -1.5592 S.3       1 <0>         0.0894
      7 C5          1.6939   -3.9576   -0.5629 C.2       1 <0>         0.1905
      8 N2          1.6558   -2.6326   -0.5763 N.2       1 <0>        -0.5120
      9 C6          2.6617   -4.8620    0.0944 C.ar      1 <0>        -0.0516
     10 C7          3.7171   -4.3360    0.8406 C.ar      1 <0>        -0.0564
     11 C8          4.6167   -5.1853    1.4513 C.ar      1 <0>        -0.1167
     12 C9          4.4744   -6.5556    1.3247 C.ar      1 <0>        -0.0085
     13 C10         3.4305   -7.0835    0.5860 C.ar      1 <0>        -0.1202
     14 C11         2.5202   -6.2453   -0.0242 C.ar      1 <0>        -0.0762
     15 C12         5.4610   -7.4773    1.9941 C.3       1 <0>        -0.1364
     16 C13         5.3765   -8.9674    1.6574 C.3       1 <0>        -0.1720
     17 C14         4.9160   -8.4654    3.0274 C.3       1 <0>        -0.1623
     18 H1          1.0047    1.8421    0.0024 H         1 <0>         0.1251
     19 H2         -0.5450    1.8259   -0.8730 H         1 <0>         0.1250
     20 H3         -0.5280    1.8163    0.9069 H         1 <0>         0.1276
     21 H4          0.4901   -0.3383    0.8195 H         1 <0>         0.4332
     22 H5          0.1625   -0.1167   -2.0897 H         1 <0>         0.1455
     23 H6          1.7123   -0.1005   -1.2143 H         1 <0>         0.1447
     24 H7         -1.0862   -2.3092   -2.4632 H         1 <0>         0.2097
     25 H8          3.8297   -3.2665    0.9395 H         1 <0>         0.1355
     26 H9          5.4339   -4.7795    2.0291 H         1 <0>         0.1367
     27 H10         3.3251   -8.1541    0.4907 H         1 <0>         0.1382
     28 H11         1.7028   -6.6586   -0.5963 H         1 <0>         0.1292
     29 H12         6.4506   -7.0568    2.1730 H         1 <0>         0.1203
     30 H13         4.6072   -9.2811    0.9518 H         1 <0>         0.1005
     31 H14         6.3106   -9.5275    1.6146 H         1 <0>         0.1043
     32 H15         5.5472   -8.6952    3.8858 H         1 <0>         0.1040
     33 H16         3.8438   -8.4488    3.2230 H         1 <0>         0.0980
     34 H17        -0.9445   -0.3533    0.0092 H         1 <0>         0.4283
@<TRIPOS>BOND
     1    1    2 1
     2    1   18 1
     3    1   19 1
     4    1   20 1
     5    2    3 1
     6    2   21 1
     7    2   34 1
     8    3    4 1
     9    3   22 1
    10    3   23 1
    11    4    8 1
    12    4    5 2
    13    5    6 1
    14    5   24 1
    15    6    7 1
    16    7    8 2
    17    7    9 1
    18    9   14 ar
    19    9   10 ar
    20   10   11 ar
    21   10   25 1
    22   11   12 ar
    23   11   26 1
    24   12   13 ar
    25   12   15 1
    26   13   14 ar
    27   13   27 1
    28   14   28 1
    29   15   17 1
    30   15   16 1
    31   15   29 1
    32   16   17 1
    33   16   30 1
    34   16   31 1
    35   17   32 1
    36   17   33 1
@<TRIPOS>MOLECULE
ZINC62791308
   21    22     0     0     0
SMALL
USER_CHARGES

@<TRIPOS>ATOM
      1 C1         -0.0168    1.3912    0.0097 C.ar      1 <0>        -0.0580
      2 C2          1.1695    2.0952    0.0021 C.ar      1 <0>        -0.1371
      3 C3          2.3789    1.4197   -0.0135 C.ar      1 <0>         0.1316
      4 C4          2.4040    0.0328   -0.0216 C.ar      1 <0>        -0.0767
      5 C5          1.2228   -0.6807   -0.0137 C.ar      1 <0>        -0.0339
      6 C6          0.0021   -0.0041    0.0020 C.ar      1 <0>        -0.0150
      7 C7         -1.2667   -0.7631    0.0105 C.2       1 <0>         0.1511
      8 N1         -1.4627   -2.0742    0.0109 N.2       1 <0>        -0.4807
      9 C8         -2.6730   -2.5821    0.0199 C.2       1 <0>         0.0398
     10 C9         -3.7536   -1.7576    0.0291 C.2       1 <0>        -0.1743
     11 S1         -2.9498   -0.1600    0.0311 S.3       1 <0>         0.0448
     12 C10        -2.8642   -4.0770    0.0196 C.3       1 <0>         0.0347
     13 Cl1        -2.9276   -4.6751    1.7193 Cl        1 <0>        -0.1642
     14 Cl2         3.9235   -0.8065   -0.0424 Cl        1 <0>        -0.0342
     15 F1          3.5377    2.1140   -0.0213 F         1 <0>        -0.1180
     16 H1         -0.9589    1.9191    0.0260 H         1 <0>         0.1454
     17 H2          1.1554    3.1751    0.0081 H         1 <0>         0.1572
     18 H3          1.2428   -1.7605   -0.0204 H         1 <0>         0.1577
     19 H4         -4.8060   -2.0001    0.0371 H         1 <0>         0.2060
     20 H5         -3.7969   -4.3238   -0.4875 H         1 <0>         0.1126
     21 H6         -2.0314   -4.5497   -0.5011 H         1 <0>         0.1112
@<TRIPOS>BOND
     1    1    6 ar
     2    1    2 ar
     3    1   16 1
     4    2    3 ar
     5    2   17 1
     6    3    4 ar
     7    3   15 1
     8    4    5 ar
     9    4   14 1
    10    5    6 ar
    11    5   18 1
    12    6    7 1
    13    7   11 1
    14    7    8 2
    15    8    9 1
    16    9   10 2
    17    9   12 1
    18   10   11 1
    19   10   19 1
    20   12   13 1
    21   12   20 1
    22   12   21 1
@<TRIPOS>MOLECULE
ZINC40999614
   33    34     0     0     0
SMALL
USER_CHARGES

@<TRIPOS>ATOM
      1 C1         -0.0187    1.5258    0.0104 C.3       1 <0>        -0.1900
      2 C2          0.0021   -0.0041    0.0020 C.3       1 <0>        -0.0095
      3 N1          0.7126   -0.4907    1.1921 N.4       1 <0>        -0.5088
      4 C3          0.7325   -1.9595    1.1840 C.3       1 <0>         0.0781
      5 C4          1.4614   -2.4588    2.4049 C.2       1 <0>        -0.0088
      6 C5          0.7647   -2.8029    3.5207 C.2       1 <0>        -0.1849
      7 S1          2.0991   -3.3016    4.6020 S.3       1 <0>         0.0912
      8 C6          3.4352   -2.9982    3.4531 C.2       1 <0>         0.1883
      9 N2          2.7690   -2.5672    2.3912 N.2       1 <0>        -0.5100
     10 C7          4.8907   -3.1833    3.6364 C.ar      1 <0>        -0.0393
     11 C8          5.7724   -2.8760    2.5990 C.ar      1 <0>        -0.0699
     12 C9          7.1291   -3.0511    2.7764 C.ar      1 <0>        -0.1153
     13 C10         7.6165   -3.5302    3.9796 C.ar      1 <0>        -0.0850
     14 C11         6.7480   -3.8371    5.0115 C.ar      1 <0>        -0.0781
     15 C12         5.3891   -3.6606    4.8491 C.ar      1 <0>        -0.0864
     16 C13         7.2875   -4.3593    6.3182 C.3       1 <0>        -0.1224
     17 H1          1.0039    1.9031    0.0027 H         1 <0>         0.0806
     18 H2         -0.5459    1.8868   -0.8726 H         1 <0>         0.1081
     19 H3         -0.5289    1.8773    0.9072 H         1 <0>         0.0804
     20 H4         -1.0205   -0.3814    0.0098 H         1 <0>         0.1324
     21 H5          0.5123   -0.3556   -0.8948 H         1 <0>         0.1325
     22 H6          1.6592   -0.1414    1.1850 H         1 <0>         0.4310
     23 H7         -0.2901   -2.3368    1.1918 H         1 <0>         0.1455
     24 H8          1.2427   -2.3111    0.2873 H         1 <0>         0.1447
     25 H9         -0.2995   -2.7808    3.7034 H         1 <0>         0.2100
     26 H10         5.3932   -2.5023    1.6594 H         1 <0>         0.1339
     27 H11         7.8124   -2.8140    1.9743 H         1 <0>         0.1369
     28 H12         8.6796   -3.6655    4.1134 H         1 <0>         0.1354
     29 H13         4.7124   -3.8960    5.6572 H         1 <0>         0.1282
     30 H14         7.4960   -3.5230    6.9854 H         1 <0>         0.0785
     31 H15         6.5501   -5.0166    6.7790 H         1 <0>         0.0715
     32 H16         8.2065   -4.9161    6.1352 H         1 <0>         0.0754
     33 H17         0.2403   -0.1653    2.0223 H         1 <0>         0.4259
@<TRIPOS>BOND
     1    1    2 1
     2    1   17 1
     3    1   18 1
     4    1   19 1
     5    2    3 1
     6    2   20 1
     7    2   21 1
     8    3    4 1
     9    3   22 1
    10    3   33 1
    11    4    5 1
    12    4   23 1
    13    4   24 1
    14    5    9 1
    15    5    6 2
    16    6    7 1
    17    6   25 1
    18    7    8 1
    19    8    9 2
    20    8   10 1
    21   10   15 ar
    22   10   11 ar
    23   11   12 ar
    24   11   26 1
    25   12   13 ar
    26   12   27 1
    27   13   14 ar
    28   13   28 1
    29   14   15 ar
    30   14   16 1
    31   15   29 1
    32   16   30 1
    33   16   31 1
    34   16   32 1
@<TRIPOS>MOLECULE
ZINC80801860
   33    35     0     0     0
SMALL
USER_CHARGES

@<TRIPOS>ATOM
      1 C1         -0.0187    1.5258    0.0104 C.3       1 <0>        -0.1747
      2 C2          0.0021   -0.0041    0.0020 C.3       1 <0>         0.1093
      3 H1          0.5123   -0.3556   -0.8948 H         1 <0>         0.1576
      4 C3          0.7309   -0.5033    1.2229 C.2       1 <0>         0.0425
      5 C4          0.1263   -1.3836    2.0645 C.2       1 <0>        -0.2642
      6 S1          1.4141   -1.6114    3.2845 S.3       1 <0>         0.0977
      7 C5          2.6136   -0.5125    2.5425 C.2       1 <0>         0.2009
      8 N1          1.9521   -0.0933    1.4727 N.2       1 <0>        -0.5018
      9 C6          3.9775   -0.1683    2.9966 C.ar      1 <0>        -0.0411
     10 C7          4.7536    0.7365    2.2507 C.ar      1 <0>        -0.0783
     11 C8          6.0087    1.0685    2.6470 C.ar      1 <0>        -0.0967
     12 C9          6.5491    0.5055    3.8177 C.ar      1 <0>        -0.0290
     13 C10         7.8456    0.8338    4.2481 C.ar      1 <0>        -0.1119
     14 C11         8.3413    0.2732    5.3853 C.ar      1 <0>        -0.0949
     15 C12         7.5821   -0.6249    6.1331 C.ar      1 <0>        -0.1088
     16 C13         6.3225   -0.9670    5.7479 C.ar      1 <0>        -0.1001
     17 C14         5.7762   -0.4078    4.5787 C.ar      1 <0>        -0.0588
     18 C15         4.4788   -0.7349    4.1561 C.ar      1 <0>        -0.0509
     19 N2         -1.3761   -0.5125    0.0124 N.4       1 <0>        -0.6348
     20 H2          1.0039    1.9031    0.0027 H         1 <0>         0.1152
     21 H3         -0.5459    1.8868   -0.8726 H         1 <0>         0.0880
     22 H4         -0.5289    1.8773    0.9072 H         1 <0>         0.0805
     23 H5         -0.8588   -1.8231    2.0113 H         1 <0>         0.1977
     24 H6          4.3460    1.1726    1.3507 H         1 <0>         0.1361
     25 H7          6.5927    1.7647    2.0634 H         1 <0>         0.1400
     26 H8          8.4465    1.5276    3.6790 H         1 <0>         0.1352
     27 H9          9.3384    0.5281    5.7128 H         1 <0>         0.1318
     28 H10         7.9995   -1.0559    7.0311 H         1 <0>         0.1318
     29 H11         5.7454   -1.6646    6.3368 H         1 <0>         0.1330
     30 H12         3.8779   -1.4262    4.7282 H         1 <0>         0.1332
     31 H13        -1.8484   -0.1871    0.8426 H         1 <0>         0.4350
     32 H14        -1.8641   -0.1783   -0.8050 H         1 <0>         0.4438
     33 H15        -1.3624   -1.5214    0.0069 H         1 <0>         0.4367
@<TRIPOS>BOND
     1    1    2 1
     2    1   20 1
     3    1   21 1
     4    1   22 1
     5    2    3 1
     6    2    4 1
     7    2   19 1
     8    4    8 1
     9    4    5 2
    10    5    6 1
    11    5   23 1
    12    6    7 1
    13    7    8 2
    14    7    9 1
    15    9   18 ar
    16    9   10 ar
    17   10   11 ar
    18   10   24 1
    19   11   12 ar
    20   11   25 1
    21   12   17 ar
    22   12   13 ar
    23   13   14 ar
    24   13   26 1
    25   14   15 ar
    26   14   27 1
    27   15   16 ar
    28   15   28 1
    29   16   17 ar
    30   16   29 1
    31   17   18 ar
    32   18   30 1
    33   19   31 1
    34   19   32 1
    35   19   33 1
@<TRIPOS>MOLECULE
ZINC80801862
   33    35     0     0     0
SMALL
USER_CHARGES

@<TRIPOS>ATOM
      1 C1         -0.0187    1.5258    0.0104 C.3       1 <0>        -0.1772
      2 C2          0.0021   -0.0041    0.0020 C.3       1 <0>         0.1172
      3 H1         -1.0205   -0.3814    0.0098 H         1 <0>         0.1530
      4 C3          0.7309   -0.5033    1.2229 C.2       1 <0>        -0.0062
      5 C4          0.1263   -1.3836    2.0645 C.2       1 <0>        -0.1789
      6 S1          1.4141   -1.6114    3.2845 S.3       1 <0>         0.0907
      7 C5          2.6136   -0.5125    2.5425 C.2       1 <0>         0.1874
      8 N1          1.9521   -0.0933    1.4727 N.2       1 <0>        -0.5153
      9 C6          3.9775   -0.1683    2.9966 C.ar      1 <0>        -0.0386
     10 C7          4.7536    0.7365    2.2507 C.ar      1 <0>        -0.0814
     11 C8          6.0087    1.0685    2.6470 C.ar      1 <0>        -0.0966
     12 C9          6.5491    0.5055    3.8177 C.ar      1 <0>        -0.0309
     13 C10         7.8455    0.8338    4.2481 C.ar      1 <0>        -0.1123
     14 C11         8.3413    0.2732    5.3853 C.ar      1 <0>        -0.0951
     15 C12         7.5821   -0.6249    6.1331 C.ar      1 <0>        -0.1081
     16 C13         6.3225   -0.9670    5.7479 C.ar      1 <0>        -0.1004
     17 C14         5.7762   -0.4078    4.5787 C.ar      1 <0>        -0.0575
     18 C15         4.4788   -0.7349    4.1561 C.ar      1 <0>        -0.0525
     19 N2          0.6897   -0.4778   -1.2066 N.4       1 <0>        -0.6340
     20 H2          1.0039    1.9031    0.0027 H         1 <0>         0.0900
     21 H3         -0.5459    1.8868   -0.8726 H         1 <0>         0.0862
     22 H4         -0.5289    1.8773    0.9072 H         1 <0>         0.1036
     23 H5         -0.8588   -1.8231    2.0113 H         1 <0>         0.2101
     24 H6          4.3460    1.1726    1.3507 H         1 <0>         0.1329
     25 H7          6.5927    1.7647    2.0634 H         1 <0>         0.1387
     26 H8          8.4465    1.5276    3.6790 H         1 <0>         0.1347
     27 H9          9.3384    0.5281    5.7128 H         1 <0>         0.1319
     28 H10         7.9995   -1.0559    7.0311 H         1 <0>         0.1320
     29 H11         5.7454   -1.6646    6.3368 H         1 <0>         0.1334
     30 H12         3.8779   -1.4262    4.7282 H         1 <0>         0.1334
     31 H13         1.6363   -0.1286   -1.2138 H         1 <0>         0.4381
     32 H14         0.7033   -1.4867   -1.2121 H         1 <0>         0.4346
     33 H15         0.2017   -0.1436   -2.0240 H         1 <0>         0.4372
@<TRIPOS>BOND
     1    1    2 1
     2    1   20 1
     3    1   21 1
     4    1   22 1
     5    2    3 1
     6    2    4 1
     7    2   19 1
     8    4    8 1
     9    4    5 2
    10    5    6 1
    11    5   23 1
    12    6    7 1
    13    7    8 2
    14    7    9 1
    15    9   18 ar
    16    9   10 ar
    17   10   11 ar
    18   10   24 1
    19   11   12 ar
    20   11   25 1
    21   12   17 ar
    22   12   13 ar
    23   13   14 ar
    24   13   26 1
    25   14   15 ar
    26   14   27 1
    27   15   16 ar
    28   15   28 1
    29   16   17 ar
    30   16   29 1
    31   17   18 ar
    32   18   30 1
    33   19   31 1
    34   19   32 1
    35   19   33 1
@<TRIPOS>MOLECULE
ZINC40999575
   30    31     0     0     0
SMALL
USER_CHARGES

@<TRIPOS>ATOM
      1 C1          2.0153   -1.9945    2.0090 C.3       1 <0>        -0.1139
      2 C2          0.9784   -1.6821    0.9610 C.ar      1 <0>        -0.0315
      3 C3          1.0386   -2.2927   -0.2750 C.ar      1 <0>        -0.1211
      4 C4          0.0873   -2.0073   -1.2378 C.ar      1 <0>        -0.0797
      5 C5         -0.9299   -1.1085   -0.9691 C.ar      1 <0>        -0.1224
      6 C6         -1.0014   -0.4913    0.2625 C.ar      1 <0>        -0.0785
      7 C7         -0.0480   -0.7791    1.2403 C.ar      1 <0>        -0.0489
      8 C8         -0.1219   -0.1254    2.5646 C.2       1 <0>         0.1909
      9 N1         -0.0070   -0.6577    3.7732 N.2       1 <0>        -0.4999
     10 C9         -0.1003    0.0802    4.8543 C.2       1 <0>        -0.0151
     11 C10        -0.3189    1.4176    4.7451 C.2       1 <0>        -0.1820
     12 S1         -0.3825    1.5972    2.9668 S.3       1 <0>         0.0900
     13 C11         0.0343   -0.5540    6.2148 C.3       1 <0>         0.0772
     14 N2         -1.2675   -1.0879    6.6371 N.4       1 <0>        -0.5086
     15 C12        -1.1364   -1.7060    7.9632 C.3       1 <0>        -0.0467
     16 H1          1.6406   -2.7769    2.6689 H         1 <0>         0.0792
     17 H2          2.9303   -2.3351    1.5245 H         1 <0>         0.0733
     18 H3          2.2248   -1.0974    2.5915 H         1 <0>         0.0617
     19 H4          1.8304   -2.9946   -0.4912 H         1 <0>         0.1362
     20 H5          0.1389   -2.4879   -2.2036 H         1 <0>         0.1356
     21 H6         -1.6691   -0.8895   -1.7254 H         1 <0>         0.1370
     22 H7         -1.7958    0.2100    0.4710 H         1 <0>         0.1292
     23 H8         -0.4211    2.1651    5.5178 H         1 <0>         0.2093
     24 H9          0.7614   -1.3646    6.1675 H         1 <0>         0.1445
     25 H10         0.3703    0.1941    6.9328 H         1 <0>         0.1452
     26 H11        -1.9406   -0.3375    6.6808 H         1 <0>         0.4282
     27 H12        -2.1023   -2.1022    8.2765 H         1 <0>         0.1275
     28 H13        -0.4092   -2.5167    7.9159 H         1 <0>         0.1251
     29 H14        -0.8003   -0.9579    8.6812 H         1 <0>         0.1249
     30 H15        -1.5786   -1.7804    5.9724 H         1 <0>         0.4334
@<TRIPOS>BOND
     1    1    2 1
     2    1   16 1
     3    1   17 1
     4    1   18 1
     5    2    7 ar
     6    2    3 ar
     7    3    4 ar
     8    3   19 1
     9    4    5 ar
    10    4   20 1
    11    5    6 ar
    12    5   21 1
    13    6    7 ar
    14    6   22 1
    15    7    8 1
    16    8   12 1
    17    8    9 2
    18    9   10 1
    19   10   11 2
    20   10   13 1
    21   11   12 1
    22   11   23 1
    23   13   14 1
    24   13   24 1
    25   13   25 1
    26   14   15 1
    27   14   26 1
    28   14   30 1
    29   15   27 1
    30   15   28 1
    31   15   29 1
@<TRIPOS>MOLECULE
ZINC43393118
   36    37     0     0     0
SMALL
USER_CHARGES

@<TRIPOS>ATOM
      1 C1         -0.0187    1.5258    0.0104 C.3       1 <0>        -0.1900
      2 C2          0.0021   -0.0041    0.0020 C.3       1 <0>        -0.0095
      3 N1          0.7126   -0.4907    1.1921 N.4       1 <0>        -0.5089
      4 C3          0.7325   -1.9595    1.1840 C.3       1 <0>         0.0781
      5 C4          1.4614   -2.4588    2.4049 C.2       1 <0>        -0.0088
      6 C5          0.7647   -2.8029    3.5207 C.2       1 <0>        -0.1852
      7 S1          2.0991   -3.3016    4.6020 S.3       1 <0>         0.0916
      8 C6          3.4352   -2.9982    3.4531 C.2       1 <0>         0.1890
      9 N2          2.7690   -2.5672    2.3912 N.2       1 <0>        -0.5100
     10 C7          4.8907   -3.1833    3.6364 C.ar      1 <0>        -0.0346
     11 C8          5.7723   -2.8761    2.5992 C.ar      1 <0>        -0.0715
     12 C9          7.1292   -3.0511    2.7766 C.ar      1 <0>        -0.0794
     13 C10         7.6165   -3.5306    3.9794 C.ar      1 <0>        -0.0874
     14 C11         6.7478   -3.8376    5.0115 C.ar      1 <0>        -0.0731
     15 C12         5.3891   -3.6607    4.8493 C.ar      1 <0>        -0.0929
     16 C13         7.2873   -4.3598    6.3182 C.3       1 <0>        -0.1219
     17 C14         8.0827   -2.7198    1.6576 C.3       1 <0>        -0.1196
     18 H1          1.0039    1.9031    0.0027 H         1 <0>         0.0806
     19 H2         -0.5459    1.8868   -0.8726 H         1 <0>         0.1081
     20 H3         -0.5289    1.8773    0.9072 H         1 <0>         0.0804
     21 H4         -1.0205   -0.3814    0.0098 H         1 <0>         0.1324
     22 H5          0.5123   -0.3556   -0.8948 H         1 <0>         0.1324
     23 H6          1.6592   -0.1414    1.1850 H         1 <0>         0.4309
     24 H7         -0.2901   -2.3368    1.1918 H         1 <0>         0.1455
     25 H8          1.2427   -2.3111    0.2873 H         1 <0>         0.1446
     26 H9         -0.2995   -2.7808    3.7034 H         1 <0>         0.2099
     27 H10         5.3931   -2.5024    1.6595 H         1 <0>         0.1337
     28 H11         8.6796   -3.6663    4.1131 H         1 <0>         0.1348
     29 H12         4.7124   -3.8958    5.6575 H         1 <0>         0.1279
     30 H13         7.4958   -3.5235    6.9854 H         1 <0>         0.0785
     31 H14         6.5499   -5.0171    6.7790 H         1 <0>         0.0717
     32 H15         8.2063   -4.9166    6.1352 H         1 <0>         0.0752
     33 H16         8.3908   -1.6775    1.7394 H         1 <0>         0.0768
     34 H17         8.9593   -3.3642    1.7245 H         1 <0>         0.0744
     35 H18         7.5876   -2.8783    0.6995 H         1 <0>         0.0702
     36 H19         0.2403   -0.1653    2.0223 H         1 <0>         0.4259
@<TRIPOS>BOND
     1    1    2 1
     2    1   18 1
     3    1   19 1
     4    1   20 1
     5    2    3 1
     6    2   21 1
     7    2   22 1
     8    3    4 1
     9    3   23 1
    10    3   36 1
    11    4    5 1
    12    4   24 1
    13    4   25 1
    14    5    9 1
    15    5    6 2
    16    6    7 1
    17    6   26 1
    18    7    8 1
    19    8    9 2
    20    8   10 1
    21   10   15 ar
    22   10   11 ar
    23   11   12 ar
    24   11   27 1
    25   12   13 ar
    26   12   17 1
    27   13   14 ar
    28   13   28 1
    29   14   15 ar
    30   14   16 1
    31   15   29 1
    32   16   30 1
    33   16   31 1
    34   16   32 1
    35   17   33 1
    36   17   34 1
    37   17   35 1
@<TRIPOS>MOLECULE
ZINC70842519
   33    34     0     0     0
SMALL
USER_CHARGES

@<TRIPOS>ATOM
      1 C1         -0.0184    1.5028    0.0103 C.3       1 <0>        -0.1200
      2 C2          0.0021   -0.0041    0.0020 C.ar      1 <0>        -0.0793
      3 C3          0.0058   -0.6877   -1.2008 C.ar      1 <0>        -0.0850
      4 C4          0.0245   -2.0710   -1.2171 C.ar      1 <0>        -0.0744
      5 C5          0.0401   -2.7777   -0.0322 C.ar      1 <0>        -0.0914
      6 C6          0.0369   -2.0941    1.1844 C.ar      1 <0>        -0.0383
      7 C7          0.0228   -0.6988    1.1938 C.ar      1 <0>        -0.0677
      8 C8          0.0530   -2.8452    2.4581 C.2       1 <0>         0.2027
      9 N1          0.0475   -2.3902    3.7031 N.2       1 <0>        -0.5030
     10 C9          0.0639   -3.2095    4.7281 C.2       1 <0>         0.0418
     11 C10         0.0869   -4.5531    4.5211 C.2       1 <0>        -0.2649
     12 S1          0.0771   -4.6117    2.7336 S.3       1 <0>         0.1002
     13 C11         0.0577   -2.6621    6.1321 C.3       1 <0>         0.1094
     14 H1         -0.8826   -2.1419    6.3151 H         1 <0>         0.1575
     15 C12         1.2227   -1.6854    6.3039 C.3       1 <0>        -0.1746
     16 N2          0.2001   -3.7674    7.0892 N.4       1 <0>        -0.6347
     17 C13         0.0274   -2.8075   -2.5318 C.3       1 <0>        -0.1215
     18 H2          1.0042    1.8801    0.0026 H         1 <0>         0.0776
     19 H3         -0.5455    1.8639   -0.8728 H         1 <0>         0.0743
     20 H4         -0.5286    1.8543    0.9071 H         1 <0>         0.0709
     21 H5         -0.0064   -0.1392   -2.1310 H         1 <0>         0.1353
     22 H6          0.0543   -3.8575   -0.0462 H         1 <0>         0.1277
     23 H7          0.0241   -0.1639    2.1321 H         1 <0>         0.1359
     24 H8          0.1025   -5.3611    5.2376 H         1 <0>         0.1976
     25 H9          1.1170   -0.8653    5.5937 H         1 <0>         0.1149
     26 H10         1.2182   -1.2894    7.3194 H         1 <0>         0.0880
     27 H11         2.1629   -2.2056    6.1209 H         1 <0>         0.0805
     28 H12         1.0704   -4.2489    6.9198 H         1 <0>         0.4350
     29 H13         0.1959   -3.4009    8.0293 H         1 <0>         0.4438
     30 H14         1.0556   -2.9711   -2.8544 H         1 <0>         0.0786
     31 H15        -0.4728   -3.7684   -2.4111 H         1 <0>         0.0713
     32 H16        -0.4986   -2.2157   -3.2809 H         1 <0>         0.0752
     33 H17        -0.5682   -4.4115    6.9759 H         1 <0>         0.4367
@<TRIPOS>BOND
     1    1    2 1
     2    1   18 1
     3    1   19 1
     4    1   20 1
     5    2    7 ar
     6    2    3 ar
     7    3    4 ar
     8    3   21 1
     9    4    5 ar
    10    4   17 1
    11    5    6 ar
    12    5   22 1
    13    6    7 ar
    14    6    8 1
    15    7   23 1
    16    8   12 1
    17    8    9 2
    18    9   10 1
    19   10   11 2
    20   10   13 1
    21   11   12 1
    22   11   24 1
    23   13   14 1
    24   13   15 1
    25   13   16 1
    26   15   25 1
    27   15   26 1
    28   15   27 1
    29   16   28 1
    30   16   29 1
    31   16   33 1
    32   17   30 1
    33   17   31 1
    34   17   32 1
@<TRIPOS>MOLECULE
ZINC62938455
   34    36     0     0     0
SMALL
USER_CHARGES

@<TRIPOS>ATOM
      1 C1         -0.0166    1.3757    0.0096 C.ar      1 <0>        -0.1098
      2 C2          1.1704    2.0862    0.0021 C.ar      1 <0>        -0.0906
      3 C3          2.3818    1.4189   -0.0131 C.ar      1 <0>        -0.1718
      4 C4          2.4125    0.0390   -0.0213 C.ar      1 <0>        -0.0651
      5 C5          1.2200   -0.6818   -0.0138 C.ar      1 <0>        -0.0086
      6 C6          0.0021   -0.0041    0.0020 C.ar      1 <0>        -0.0730
      7 C7          1.2465   -2.1651   -0.0230 C.2       1 <0>         0.0810
      8 C8          0.0755   -2.8779   -0.0209 C.2       1 <0>        -0.1873
      9 S1          0.7066   -4.5510   -0.0353 S.3       1 <0>         0.0664
     10 C9          2.4445   -4.1329   -0.0426 C.2       1 <0>         0.1624
     11 N1          2.3975   -2.8104   -0.0388 N.2       1 <0>        -0.4964
     12 C10         3.6221   -5.0273   -0.0544 C.ar      1 <0>        -0.0124
     13 C11         4.9102   -4.4899   -0.0522 C.ar      1 <0>        -0.0671
     14 C12         6.0050   -5.3291   -0.0634 C.ar      1 <0>        -0.1058
     15 C13         5.8288   -6.7013   -0.0768 C.ar      1 <0>        -0.0843
     16 C14         4.5541   -7.2413   -0.0795 C.ar      1 <0>        -0.0324
     17 C15         3.4500   -6.4117   -0.0622 C.ar      1 <0>        -0.0823
     18 Cl1         4.3430   -8.9644   -0.0975 Cl        1 <0>        -0.0479
     19 C16         3.6706    2.1999   -0.0212 C.3       1 <0>         0.0489
     20 N2          4.1026    2.4462    1.3611 N.4       1 <0>        -0.6372
     21 H1         -0.9597    1.9018    0.0260 H         1 <0>         0.1409
     22 H2          1.1511    3.1660    0.0077 H         1 <0>         0.1340
     23 H3          3.3589   -0.4810   -0.0338 H         1 <0>         0.1415
     24 H4         -0.9252   -0.5578    0.0083 H         1 <0>         0.1372
     25 H5         -0.9456   -2.5263   -0.0124 H         1 <0>         0.2049
     26 H6          5.0496   -3.4190   -0.0421 H         1 <0>         0.1383
     27 H7          7.0020   -4.9140   -0.0620 H         1 <0>         0.1438
     28 H8          6.6893   -7.3539   -0.0855 H         1 <0>         0.1444
     29 H9          2.4559   -6.8337   -0.0591 H         1 <0>         0.1395
     30 H10         4.4376    1.6299   -0.5455 H         1 <0>         0.1403
     31 H11         3.5152    3.1521   -0.5284 H         1 <0>         0.1412
     32 H12         4.2464    1.5648    1.8306 H         1 <0>         0.4350
     33 H13         4.9655    2.9692    1.3556 H         1 <0>         0.4379
     34 H14         3.3926    2.9739    1.8464 H         1 <0>         0.4346
@<TRIPOS>BOND
     1    1    6 ar
     2    1    2 ar
     3    1   21 1
     4    2    3 ar
     5    2   22 1
     6    3    4 ar
     7    3   19 1
     8    4    5 ar
     9    4   23 1
    10    5    6 ar
    11    5    7 1
    12    6   24 1
    13    7   11 1
    14    7    8 2
    15    8    9 1
    16    8   25 1
    17    9   10 1
    18   10   11 2
    19   10   12 1
    20   12   17 ar
    21   12   13 ar
    22   13   14 ar
    23   13   26 1
    24   14   15 ar
    25   14   27 1
    26   15   16 ar
    27   15   28 1
    28   16   17 ar
    29   16   18 1
    30   17   29 1
    31   19   20 1
    32   19   30 1
    33   19   31 1
    34   20   32 1
    35   20   33 1
    36   20   34 1
@<TRIPOS>MOLECULE
ZINC40419365
   33    34     0     0     0
SMALL
USER_CHARGES

@<TRIPOS>ATOM
      1 C1         -0.0187    1.5258    0.0104 C.3       1 <0>        -0.1564
      2 C2          0.0021   -0.0041    0.0020 C.3       1 <0>        -0.1515
      3 C3          0.7182   -0.4975   -1.2568 C.3       1 <0>        -0.0103
      4 N1          0.7381   -1.9663   -1.2649 N.4       1 <0>        -0.5084
      5 C4          1.4257   -2.4401   -2.4735 C.3       1 <0>         0.0781
      6 C5          1.4462   -3.9469   -2.4818 C.2       1 <0>        -0.0151
      7 C6          0.4882   -4.6371   -3.1555 C.2       1 <0>        -0.2053
      8 S1          1.0003   -6.3188   -2.8267 S.3       1 <0>         0.1398
      9 C7          2.4305   -5.9200   -1.8305 C.2       1 <0>         0.1611
     10 N2          2.3920   -4.5950   -1.8431 N.2       1 <0>        -0.5004
     11 C8          3.3987   -6.8244   -1.1743 C.ar      1 <0>        -0.0266
     12 C9          4.4542   -6.2987   -0.4279 C.ar      1 <0>        -0.0551
     13 C10         5.3542   -7.1478    0.1820 C.ar      1 <0>        -0.1120
     14 C11         5.2127   -8.5185    0.0554 C.ar      1 <0>        -0.0737
     15 C12         4.1693   -9.0472   -0.6826 C.ar      1 <0>        -0.1027
     16 C13         3.2577   -8.2085   -1.2937 C.ar      1 <0>        -0.0187
     17 Cl1         1.9443   -8.8733   -2.2138 Cl        1 <0>        -0.0291
     18 H1          1.0039    1.9031    0.0027 H         1 <0>         0.0675
     19 H2         -0.5459    1.8868   -0.8726 H         1 <0>         0.0674
     20 H3         -0.5289    1.8773    0.9072 H         1 <0>         0.0775
     21 H4          0.5293   -0.3651    0.8851 H         1 <0>         0.0862
     22 H5         -1.0205   -0.3814    0.0098 H         1 <0>         0.0860
     23 H6          0.1910   -0.1364   -2.1398 H         1 <0>         0.1327
     24 H7          1.7408   -0.1202   -1.2645 H         1 <0>         0.1329
     25 H8          1.2261   -2.3006   -0.4474 H         1 <0>         0.4306
     26 H9          0.8985   -2.0790   -3.3565 H         1 <0>         0.1447
     27 H10         2.4483   -2.0628   -2.4812 H         1 <0>         0.1437
     28 H11        -0.3501   -4.2713   -3.7298 H         1 <0>         0.2062
     29 H12         4.5664   -5.2291   -0.3282 H         1 <0>         0.1445
     30 H13         6.1715   -6.7417    0.7595 H         1 <0>         0.1444
     31 H14         5.9205   -9.1785    0.5347 H         1 <0>         0.1467
     32 H15         4.0645  -10.1179   -0.7775 H         1 <0>         0.1492
     33 H16        -0.2085   -2.3156   -1.2577 H         1 <0>         0.4260
@<TRIPOS>BOND
     1    1    2 1
     2    1   18 1
     3    1   19 1
     4    1   20 1
     5    2    3 1
     6    2   21 1
     7    2   22 1
     8    3    4 1
     9    3   23 1
    10    3   24 1
    11    4    5 1
    12    4   25 1
    13    4   33 1
    14    5    6 1
    15    5   26 1
    16    5   27 1
    17    6   10 1
    18    6    7 2
    19    7    8 1
    20    7   28 1
    21    8    9 1
    22    9   10 2
    23    9   11 1
    24   11   16 ar
    25   11   12 ar
    26   12   13 ar
    27   12   29 1
    28   13   14 ar
    29   13   30 1
    30   14   15 ar
    31   14   31 1
    32   15   16 ar
    33   15   32 1
    34   16   17 1
@<TRIPOS>MOLECULE
ZINC40415669
   31    33     0     0     0
SMALL
USER_CHARGES

@<TRIPOS>ATOM
      1 C1         -0.0168    1.3914    0.0097 C.ar      1 <0>        -0.0711
      2 C2          1.1698    2.0945    0.0021 C.ar      1 <0>        -0.1060
      3 C3          2.3782    1.4185   -0.0130 C.ar      1 <0>        -0.0059
      4 C4          2.4033    0.0340   -0.0207 C.ar      1 <0>        -0.1112
      5 C5          1.2230   -0.6799   -0.0133 C.ar      1 <0>        -0.0509
      6 C6          0.0021   -0.0041    0.0020 C.ar      1 <0>        -0.0384
      7 C7         -1.2665   -0.7636    0.0105 C.2       1 <0>         0.1802
      8 N1         -1.4622   -2.0747    0.0109 N.2       1 <0>        -0.5057
      9 C8         -2.6721   -2.5830    0.0196 C.2       1 <0>        -0.0100
     10 C9         -3.7531   -1.7588    0.0285 C.2       1 <0>        -0.1800
     11 S1         -2.9498   -0.1609    0.0311 S.3       1 <0>         0.0999
     12 C10        -2.8627   -4.0779    0.0193 C.3       1 <0>         0.0831
     13 N2         -2.8149   -4.5773   -1.3614 N.4       1 <0>        -0.4783
     14 C11        -3.0007   -6.0345   -1.3617 C.3       1 <0>        -0.0843
     15 C12        -1.8401   -6.8946   -1.8659 C.3       1 <0>        -0.1533
     16 C13        -3.1000   -6.7338   -2.7190 C.3       1 <0>        -0.1539
     17 Cl1         3.8677    2.3102   -0.0230 Cl        1 <0>        -0.0433
     18 H1         -0.9587    1.9196    0.0260 H         1 <0>         0.1385
     19 H2          1.1564    3.1744    0.0077 H         1 <0>         0.1494
     20 H3          3.3487   -0.4878   -0.0329 H         1 <0>         0.1477
     21 H4          1.2437   -1.7596   -0.0196 H         1 <0>         0.1443
     22 H5         -4.8055   -2.0017    0.0363 H         1 <0>         0.2115
     23 H6         -2.0693   -4.5455    0.6024 H         1 <0>         0.1456
     24 H7         -3.8293   -4.3211    0.4604 H         1 <0>         0.1462
     25 H8         -3.5493   -4.1445   -1.9012 H         1 <0>         0.4267
     26 H9         -3.6044   -6.4317   -0.5456 H         1 <0>         0.1795
     27 H10        -0.9387   -6.3791   -2.1973 H         1 <0>         0.1211
     28 H11        -1.6799   -7.8578   -1.3814 H         1 <0>         0.1346
     29 H12        -3.7686   -7.5911   -2.7957 H         1 <0>         0.1349
     30 H13        -3.0274   -6.1125   -3.6117 H         1 <0>         0.1204
     31 H14        -1.9201   -4.3523   -1.7697 H         1 <0>         0.4286
@<TRIPOS>BOND
     1    1    6 ar
     2    1    2 ar
     3    1   18 1
     4    2    3 ar
     5    2   19 1
     6    3    4 ar
     7    3   17 1
     8    4    5 ar
     9    4   20 1
    10    5    6 ar
    11    5   21 1
    12    6    7 1
    13    7   11 1
    14    7    8 2
    15    8    9 1
    16    9   10 2
    17    9   12 1
    18   10   11 1
    19   10   22 1
    20   12   13 1
    21   12   23 1
    22   12   24 1
    23   13   14 1
    24   13   25 1
    25   13   31 1
    26   14   16 1
    27   14   15 1
    28   14   26 1
    29   15   16 1
    30   15   27 1
    31   15   28 1
    32   16   29 1
    33   16   30 1
@<TRIPOS>MOLECULE
ZINC52859454
   33    34     0     0     0
SMALL
USER_CHARGES

@<TRIPOS>ATOM
      1 C1         -0.0187    1.5258    0.0104 C.3       1 <0>        -0.1857
      2 C2          0.0021   -0.0041    0.0020 C.3       1 <0>         0.0239
      3 C3          0.7182   -0.4975   -1.2568 C.3       1 <0>        -0.1843
      4 N1          0.7126   -0.4907    1.1921 N.4       1 <0>        -0.5066
      5 C4         -0.0398   -0.1189    2.3978 C.3       1 <0>         0.0749
      6 C5          0.6890   -0.6181    3.6187 C.2       1 <0>        -0.0107
      7 C6          1.5340    0.2069    4.2918 C.2       1 <0>        -0.1879
      8 S1          2.0886   -0.8826    5.5972 S.3       1 <0>         0.1370
      9 C7          1.1370   -2.3141    5.1052 C.2       1 <0>         0.1623
     10 N2          0.5048   -1.8485    4.0369 N.2       1 <0>        -0.4984
     11 C8          1.0691   -3.6541    5.7257 C.ar      1 <0>        -0.0562
     12 C9          0.2561   -4.6432    5.1707 C.ar      1 <0>        -0.0325
     13 C10         0.1971   -5.8925    5.7549 C.ar      1 <0>        -0.0498
     14 C11         0.9421   -6.1660    6.8900 C.ar      1 <0>        -0.0491
     15 C12         1.7500   -5.1913    7.4459 C.ar      1 <0>        -0.1320
     16 C13         1.8232   -3.9378    6.8675 C.ar      1 <0>         0.1334
     17 F1          2.6172   -2.9878    7.4081 F         1 <0>        -0.1185
     18 Cl1        -0.8138   -7.1239    5.0654 Cl        1 <0>        -0.0373
     19 H1          1.0039    1.9031    0.0027 H         1 <0>         0.0823
     20 H2         -0.5459    1.8868   -0.8726 H         1 <0>         0.1074
     21 H3         -0.5289    1.8773    0.9072 H         1 <0>         0.0815
     22 H4         -1.0205   -0.3814    0.0098 H         1 <0>         0.1408
     23 H5          1.7408   -0.1202   -1.2645 H         1 <0>         0.0813
     24 H6          0.7330   -1.5874   -1.2628 H         1 <0>         0.0819
     25 H7          0.1910   -0.1364   -2.1398 H         1 <0>         0.1080
     26 H8          0.7982   -1.4950    1.1455 H         1 <0>         0.4310
     27 H9         -0.1324    0.9660    2.4481 H         1 <0>         0.1468
     28 H10        -1.0328   -0.5668    2.3589 H         1 <0>         0.1454
     29 H11         1.7975    1.2352    4.0933 H         1 <0>         0.2113
     30 H12        -0.3260   -4.4315    4.2860 H         1 <0>         0.1555
     31 H13         0.8915   -7.1450    7.3433 H         1 <0>         0.1580
     32 H14         2.3283   -5.4110    8.3311 H         1 <0>         0.1622
     33 H15         1.6317   -0.0761    1.2281 H         1 <0>         0.4241
@<TRIPOS>BOND
     1    1    2 1
     2    1   19 1
     3    1   20 1
     4    1   21 1
     5    2    3 1
     6    2    4 1
     7    2   22 1
     8    3   23 1
     9    3   24 1
    10    3   25 1
    11    4    5 1
    12    4   26 1
    13    4   33 1
    14    5    6 1
    15    5   27 1
    16    5   28 1
    17    6   10 1
    18    6    7 2
    19    7    8 1
    20    7   29 1
    21    8    9 1
    22    9   10 2
    23    9   11 1
    24   11   16 ar
    25   11   12 ar
    26   12   13 ar
    27   12   30 1
    28   13   14 ar
    29   13   18 1
    30   14   15 ar
    31   14   31 1
    32   15   16 ar
    33   15   32 1
    34   16   17 1
@<TRIPOS>MOLECULE
ZINC86583991
   34    35     0     0     0
SMALL
USER_CHARGES

@<TRIPOS>ATOM
      1 C1         -0.0187    1.5258    0.0104 C.3       1 <0>        -0.1901
      2 C2          0.0021   -0.0041    0.0020 C.3       1 <0>        -0.0095
      3 N1         -1.3761   -0.5125    0.0124 N.4       1 <0>        -0.5089
      4 C3         -1.3562   -1.9814    0.0044 C.3       1 <0>         0.0782
      5 C4         -2.7700   -2.5030    0.0151 C.2       1 <0>        -0.0082
      6 C5         -3.3823   -2.8333   -1.1523 C.2       1 <0>        -0.1838
      7 S1         -4.9778   -3.3699   -0.5480 S.3       1 <0>         0.0938
      8 C6         -4.6558   -3.0965    1.1894 C.2       1 <0>         0.1912
      9 N2         -3.4100   -2.6442    1.1526 N.2       1 <0>        -0.5111
     10 C7         -5.5390   -3.3192    2.3536 C.ar      1 <0>        -0.0720
     11 C8         -5.0850   -3.0301    3.6418 C.ar      1 <0>        -0.0146
     12 C9         -5.9114   -3.2385    4.7252 C.ar      1 <0>        -0.2017
     13 C10        -7.1941   -3.7357    4.5372 C.ar      1 <0>         0.1770
     14 C11        -7.6502   -4.0249    3.2569 C.ar      1 <0>        -0.0725
     15 C12        -6.8310   -3.8135    2.1672 C.ar      1 <0>        -0.0364
     16 Cl1        -9.2547   -4.6469    3.0278 Cl        1 <0>        -0.0305
     17 O1         -8.0052   -3.9405    5.6079 O.3       1 <0>        -0.2944
     18 C13        -7.4728   -3.6227    6.8954 C.3       1 <0>         0.0197
     19 H1          1.0039    1.9031    0.0027 H         1 <0>         0.1081
     20 H2         -0.5459    1.8868   -0.8726 H         1 <0>         0.0805
     21 H3         -0.5289    1.8773    0.9072 H         1 <0>         0.0805
     22 H4          0.5123   -0.3556   -0.8948 H         1 <0>         0.1325
     23 H5          0.5293   -0.3651    0.8851 H         1 <0>         0.1324
     24 H6         -1.8484   -0.1871    0.8426 H         1 <0>         0.4308
     25 H7         -0.8460   -2.3329   -0.8924 H         1 <0>         0.1456
     26 H8         -0.8290   -2.3425    0.8874 H         1 <0>         0.1448
     27 H9         -3.0091   -2.7848   -2.1646 H         1 <0>         0.2102
     28 H10        -4.0873   -2.6439    3.7893 H         1 <0>         0.1445
     29 H11        -5.5605   -3.0149    5.7218 H         1 <0>         0.1513
     30 H12        -7.1873   -4.0341    1.1719 H         1 <0>         0.1456
     31 H13        -8.2210   -3.8322    7.6598 H         1 <0>         0.1126
     32 H14        -6.5849   -4.2272    7.0807 H         1 <0>         0.0642
     33 H15        -7.2063   -2.5662    6.9276 H         1 <0>         0.0638
     34 H16        -1.8641   -0.1783   -0.8050 H         1 <0>         0.4262
@<TRIPOS>BOND
     1    1    2 1
     2    1   19 1
     3    1   20 1
     4    1   21 1
     5    2    3 1
     6    2   22 1
     7    2   23 1
     8    3    4 1
     9    3   24 1
    10    3   34 1
    11    4    5 1
    12    4   25 1
    13    4   26 1
    14    5    9 1
    15    5    6 2
    16    6    7 1
    17    6   27 1
    18    7    8 1
    19    8    9 2
    20    8   10 1
    21   10   15 ar
    22   10   11 ar
    23   11   12 ar
    24   11   28 1
    25   12   13 ar
    26   12   29 1
    27   13   14 ar
    28   13   17 1
    29   14   15 ar
    30   14   16 1
    31   15   30 1
    32   17   18 1
    33   18   31 1
    34   18   32 1
    35   18   33 1
@<TRIPOS>MOLECULE
ZINC70848422
   23    24     0     0     0
SMALL
USER_CHARGES

@<TRIPOS>ATOM
      1 C1         -0.0184    1.5028    0.0103 C.3       1 <0>        -0.1885
      2 C2          0.0021   -0.0041    0.0020 C.2       1 <0>         0.4289
      3 O1          0.0203   -0.6164    1.0496 O.2       1 <0>        -0.4546
      4 C3         -0.0001   -0.7296   -1.2705 C.2       1 <0>        -0.0461
      5 C4          0.0132   -2.1134   -1.2947 C.2       1 <0>        -0.2003
      6 S1          0.0038   -2.4468   -2.9443 S.3       1 <0>         0.1857
      7 C5         -0.0172   -0.7677   -3.5461 C.2       1 <0>         0.1013
      8 N1         -0.0205   -0.0734   -2.4246 N.2       1 <0>        -0.4386
      9 C6         -0.0326   -0.2799   -4.9424 C.ar      1 <0>        -0.0006
     10 C7         -0.0416    1.0905   -5.2057 C.ar      1 <0>        -0.0683
     11 C8         -0.0555    1.5398   -6.5099 C.ar      1 <0>        -0.1035
     12 C9         -0.0605    0.6352   -7.5566 C.ar      1 <0>        -0.0914
     13 C10        -0.0516   -0.7257   -7.3028 C.ar      1 <0>        -0.0327
     14 C11        -0.0323   -1.1878   -6.0014 C.ar      1 <0>        -0.0889
     15 Cl1        -0.0580   -1.8534   -8.6227 Cl        1 <0>        -0.0568
     16 H1          1.0042    1.8801    0.0026 H         1 <0>         0.0981
     17 H2         -0.5455    1.8639   -0.8728 H         1 <0>         0.0932
     18 H3         -0.5286    1.8543    0.9071 H         1 <0>         0.0868
     19 H4          0.0268   -2.8045   -0.4649 H         1 <0>         0.2104
     20 H5         -0.0381    1.7981   -4.3897 H         1 <0>         0.1434
     21 H6         -0.0628    2.6003   -6.7144 H         1 <0>         0.1433
     22 H7         -0.0717    0.9921   -8.5759 H         1 <0>         0.1412
     23 H8         -0.0209   -2.2495   -5.8040 H         1 <0>         0.1381
@<TRIPOS>BOND
     1    1    2 1
     2    1   16 1
     3    1   17 1
     4    1   18 1
     5    2    3 2
     6    2    4 1
     7    4    8 1
     8    4    5 2
     9    5    6 1
    10    5   19 1
    11    6    7 1
    12    7    8 2
    13    7    9 1
    14    9   14 ar
    15    9   10 ar
    16   10   11 ar
    17   10   20 1
    18   11   12 ar
    19   11   21 1
    20   12   13 ar
    21   12   22 1
    22   13   14 ar
    23   13   15 1
    24   14   23 1
@<TRIPOS>MOLECULE
ZINC40414278
   36    37     0     0     0
SMALL
USER_CHARGES

@<TRIPOS>ATOM
      1 C1         -0.0184    1.5028    0.0103 C.3       1 <0>        -0.1278
      2 C2          0.0021   -0.0041    0.0020 C.ar      1 <0>        -0.0445
      3 C3          0.0057   -0.6862   -1.2016 C.ar      1 <0>        -0.1183
      4 C4          0.0249   -2.0657   -1.2161 C.ar      1 <0>        -0.0777
      5 C5          0.0405   -2.7729   -0.0132 C.ar      1 <0>        -0.0522
      6 C6          0.0368   -2.0788    1.1974 C.ar      1 <0>        -0.0572
      7 C7          0.0229   -0.6992    1.1980 C.ar      1 <0>        -0.1239
      8 C8          0.0606   -4.2514   -0.0214 C.2       1 <0>         0.1900
      9 N1          0.0718   -5.0983    0.9984 N.2       1 <0>        -0.5115
     10 C9          0.0895   -6.3962    0.8061 C.2       1 <0>        -0.0062
     11 C10         0.0966   -6.8936   -0.4593 C.2       1 <0>        -0.1866
     12 S1          0.0683   -5.3786   -1.4093 S.3       1 <0>         0.0887
     13 C11         0.1024   -7.3339    1.9857 C.3       1 <0>         0.0742
     14 N2          1.4849   -7.5249    2.4443 N.4       1 <0>        -0.5065
     15 C12         1.4975   -8.4389    3.5942 C.3       1 <0>         0.0243
     16 C13         2.9442   -8.7361    3.9937 C.3       1 <0>        -0.1842
     17 C14         0.7669   -7.7886    4.7708 C.3       1 <0>        -0.1854
     18 H1          1.0042    1.8801    0.0026 H         1 <0>         0.0813
     19 H2         -0.5455    1.8639   -0.8728 H         1 <0>         0.0752
     20 H3         -0.5286    1.8543    0.9071 H         1 <0>         0.0746
     21 H4         -0.0068   -0.1377   -2.1319 H         1 <0>         0.1377
     22 H5          0.0273   -2.5970   -2.1564 H         1 <0>         0.1287
     23 H6          0.0485   -2.6203    2.1317 H         1 <0>         0.1344
     24 H7          0.0244   -0.1607    2.1343 H         1 <0>         0.1360
     25 H8          0.1111   -7.9193   -0.7971 H         1 <0>         0.2094
     26 H9         -0.4931   -6.9093    2.7939 H         1 <0>         0.1459
     27 H10        -0.3185   -8.2951    1.6905 H         1 <0>         0.1451
     28 H11         2.0362   -7.9179    1.6962 H         1 <0>         0.4259
     29 H12         0.9966   -9.3688    3.3248 H         1 <0>         0.1402
     30 H13         3.4451   -7.8063    4.2632 H         1 <0>         0.0813
     31 H14         2.9536   -9.4144    4.8469 H         1 <0>         0.1078
     32 H15         3.4647   -9.1995    3.1555 H         1 <0>         0.0815
     33 H16         0.7763   -8.4668    5.6240 H         1 <0>         0.1065
     34 H17         1.2678   -6.8587    5.0402 H         1 <0>         0.0824
     35 H18        -0.2637   -7.5768    4.4862 H         1 <0>         0.0818
     36 H19         1.8745   -6.6352    2.7176 H         1 <0>         0.4290
@<TRIPOS>BOND
     1    1    2 1
     2    1   18 1
     3    1   19 1
     4    1   20 1
     5    2    7 ar
     6    2    3 ar
     7    3    4 ar
     8    3   21 1
     9    4    5 ar
    10    4   22 1
    11    5    6 ar
    12    5    8 1
    13    6    7 ar
    14    6   23 1
    15    7   24 1
    16    8   12 1
    17    8    9 2
    18    9   10 1
    19   10   11 2
    20   10   13 1
    21   11   12 1
    22   11   25 1
    23   13   14 1
    24   13   26 1
    25   13   27 1
    26   14   15 1
    27   14   28 1
    28   14   36 1
    29   15   16 1
    30   15   17 1
    31   15   29 1
    32   16   30 1
    33   16   31 1
    34   16   32 1
    35   17   33 1
    36   17   34 1
    37   17   35 1
@<TRIPOS>MOLECULE
ZINC40999802
   28    29     0     0     0
SMALL
USER_CHARGES

@<TRIPOS>ATOM
      1 C1         -0.0169    1.3923    0.0097 C.ar      1 <0>        -0.0619
      2 C2          1.1673    2.0959    0.0022 C.ar      1 <0>        -0.0797
      3 C3          2.3815    1.4167   -0.0135 C.ar      1 <0>        -0.0748
      4 C4          2.4034    0.0255   -0.0217 C.ar      1 <0>        -0.1256
      5 C5          1.2223   -0.6832   -0.0142 C.ar      1 <0>        -0.0370
      6 C6          0.0021   -0.0041    0.0020 C.ar      1 <0>        -0.0345
      7 C7         -1.2667   -0.7616    0.0106 C.2       1 <0>         0.1794
      8 N1         -1.4639   -2.0729    0.0109 N.2       1 <0>        -0.5063
      9 C8         -2.6753   -2.5794    0.0192 C.2       1 <0>        -0.0136
     10 C9         -3.7546   -1.7539    0.0277 C.2       1 <0>        -0.1805
     11 S1         -2.9492   -0.1571    0.0311 S.3       1 <0>         0.1037
     12 C10        -2.8683   -4.0740    0.0189 C.3       1 <0>         0.0793
     13 N2         -2.8209   -4.5735   -1.3618 N.4       1 <0>        -0.6351
     14 S2          3.8944    2.3200   -0.0237 S.3       1 <0>         0.0032
     15 C11         5.1734    1.0338   -0.0433 C.3       1 <0>         0.4496
     16 F1          5.0232    0.2442   -1.1884 F         1 <0>        -0.1618
     17 F2          6.4374    1.6332   -0.0527 F         1 <0>        -0.1375
     18 F3          5.0459    0.2320    1.0960 F         1 <0>        -0.1610
     19 H1         -0.9590    1.9200    0.0260 H         1 <0>         0.1414
     20 H2          1.1533    3.1758    0.0081 H         1 <0>         0.1502
     21 H3          3.3473   -0.4991   -0.0342 H         1 <0>         0.1366
     22 H4          1.2398   -1.7630   -0.0212 H         1 <0>         0.1447
     23 H5         -4.8073   -1.9953    0.0350 H         1 <0>         0.2117
     24 H6         -2.0759   -4.5428    0.6023 H         1 <0>         0.1476
     25 H7         -3.8355   -4.3155    0.4596 H         1 <0>         0.1488
     26 H8         -2.9501   -5.5742   -1.3620 H         1 <0>         0.4408
     27 H9         -3.5544   -4.1395   -1.9018 H         1 <0>         0.4339
     28 H10        -1.9256   -4.3500   -1.7698 H         1 <0>         0.4384
@<TRIPOS>BOND
     1    1    6 ar
     2    1    2 ar
     3    1   19 1
     4    2    3 ar
     5    2   20 1
     6    3    4 ar
     7    3   14 1
     8    4    5 ar
     9    4   21 1
    10    5    6 ar
    11    5   22 1
    12    6    7 1
    13    7   11 1
    14    7    8 2
    15    8    9 1
    16    9   10 2
    17    9   12 1
    18   10   11 1
    19   10   23 1
    20   12   13 1
    21   12   24 1
    22   12   25 1
    23   13   26 1
    24   13   27 1
    25   13   28 1
    26   14   15 1
    27   15   16 1
    28   15   17 1
    29   15   18 1
@<TRIPOS>MOLECULE
ZINC62938388
   34    36     0     0     0
SMALL
USER_CHARGES

@<TRIPOS>ATOM
      1 C1         -0.0167    1.3791    0.0096 C.ar      1 <0>        -0.0903
      2 C2          1.1675    2.0879    0.0021 C.ar      1 <0>        -0.0874
      3 C3          2.3837    1.4075   -0.0131 C.ar      1 <0>         0.0247
      4 C4          2.3966    0.0139   -0.0207 C.ar      1 <0>        -0.1071
      5 C5          1.2063   -0.6846   -0.0130 C.ar      1 <0>        -0.0876
      6 C6          0.0021   -0.0041    0.0020 C.ar      1 <0>        -0.1738
      7 C7         -1.2943   -0.7724    0.0102 C.3       1 <0>         0.0482
      8 N1         -1.7287   -1.0147   -1.3720 N.4       1 <0>        -0.6373
      9 C8          3.6598    2.1639   -0.0217 C.2       1 <0>         0.0772
     10 C9          4.8579    1.4985   -0.0418 C.2       1 <0>        -0.1839
     11 S1          6.0005    2.8741   -0.0434 S.3       1 <0>         0.0682
     12 C10         4.7784    4.1783   -0.0173 C.2       1 <0>         0.1644
     13 N2          3.6518    3.4838   -0.0155 N.2       1 <0>        -0.4904
     14 C11         4.9740    5.6438   -0.0068 C.ar      1 <0>        -0.0250
     15 C12         3.8701    6.4975    0.0202 C.ar      1 <0>        -0.0346
     16 C13         4.0575    7.8637    0.0305 C.ar      1 <0>        -0.1405
     17 C14         5.3392    8.3902    0.0135 C.ar      1 <0>         0.1390
     18 C15         6.4399    7.5471   -0.0138 C.ar      1 <0>        -0.0749
     19 C16         6.2631    6.1780   -0.0180 C.ar      1 <0>        -0.0531
     20 Cl1         8.0424    8.2142   -0.0355 Cl        1 <0>        -0.0274
     21 F1          5.5171    9.7294    0.0232 F         1 <0>        -0.1142
     22 H1         -0.9597    1.9052    0.0260 H         1 <0>         0.1351
     23 H2          1.1517    3.1677    0.0077 H         1 <0>         0.1453
     24 H3          3.3362   -0.5184   -0.0328 H         1 <0>         0.1376
     25 H4          1.2151   -1.7645   -0.0189 H         1 <0>         0.1360
     26 H5         -1.1483   -1.7260    0.5176 H         1 <0>         0.1401
     27 H6         -2.0557   -0.1948    0.5344 H         1 <0>         0.1401
     28 H7         -2.5967   -1.5291   -1.3665 H         1 <0>         0.4377
     29 H8         -1.8639   -0.1319   -1.8417 H         1 <0>         0.4348
     30 H9          5.0569    0.4371   -0.0535 H         1 <0>         0.2053
     31 H10         2.8705    6.0886    0.0328 H         1 <0>         0.1521
     32 H11         3.2036    8.5247    0.0514 H         1 <0>         0.1582
     33 H12         7.1206    5.5218   -0.0344 H         1 <0>         0.1490
     34 H13        -1.0239   -1.5493   -1.8573 H         1 <0>         0.4344
@<TRIPOS>BOND
     1    1    6 ar
     2    1    2 ar
     3    1   22 1
     4    2    3 ar
     5    2   23 1
     6    3    4 ar
     7    3    9 1
     8    4    5 ar
     9    4   24 1
    10    5    6 ar
    11    5   25 1
    12    6    7 1
    13    7    8 1
    14    7   26 1
    15    7   27 1
    16    8   28 1
    17    8   29 1
    18    8   34 1
    19    9   13 1
    20    9   10 2
    21   10   11 1
    22   10   30 1
    23   11   12 1
    24   12   13 2
    25   12   14 1
    26   14   19 ar
    27   14   15 ar
    28   15   16 ar
    29   15   31 1
    30   16   17 ar
    31   16   32 1
    32   17   18 ar
    33   17   21 1
    34   18   19 ar
    35   18   20 1
    36   19   33 1
@<TRIPOS>MOLECULE
ZINC43392655
   27    28     0     0     0
SMALL
USER_CHARGES

@<TRIPOS>ATOM
      1 C1         -0.0178    1.4648    0.0101 C.3       1 <0>        -0.0470
      2 N1          0.0021   -0.0041    0.0020 N.4       1 <0>        -0.5088
      3 C2         -1.3761   -0.5125    0.0124 C.3       1 <0>         0.0763
      4 C3         -1.3556   -2.0194    0.0042 C.2       1 <0>        -0.0133
      5 C4         -1.4428   -2.7078    1.1730 C.2       1 <0>        -0.1716
      6 S1         -1.3712   -4.3904    0.5711 S.3       1 <0>         0.1240
      7 C5         -1.2332   -3.9942   -1.1670 C.2       1 <0>         0.1638
      8 N2         -1.2590   -2.6692   -1.1321 N.2       1 <0>        -0.4942
      9 C6         -1.1251   -4.9004   -2.3303 C.ar      1 <0>         0.0139
     10 C7         -1.0196   -4.3753   -3.6189 C.ar      1 <0>        -0.0856
     11 C8         -0.9183   -5.2257   -4.7029 C.ar      1 <0>         0.1056
     12 C9         -0.9217   -6.5997   -4.5119 C.ar      1 <0>         0.0660
     13 C10        -1.0269   -7.1261   -3.2327 C.ar      1 <0>         0.1115
     14 C11        -1.1224   -6.2831   -2.1424 C.ar      1 <0>        -0.1070
     15 F1         -1.0307   -8.4650   -3.0525 F         1 <0>        -0.1038
     16 F2         -0.8229   -7.4277   -5.5748 F         1 <0>        -0.1008
     17 F3         -0.8161   -4.7185   -5.9509 F         1 <0>        -0.1057
     18 H1          1.0047    1.8421    0.0024 H         1 <0>         0.1283
     19 H2         -0.5450    1.8259   -0.8730 H         1 <0>         0.1258
     20 H3         -0.5280    1.8163    0.9069 H         1 <0>         0.1255
     21 H4          0.4744   -0.3295   -0.8281 H         1 <0>         0.4335
     22 H5         -1.8863   -0.1610    0.9092 H         1 <0>         0.1475
     23 H6         -1.9033   -0.1515   -0.8706 H         1 <0>         0.1467
     24 H7         -1.5307   -2.3405    2.1848 H         1 <0>         0.2143
     25 H8         -1.0175   -3.3057   -3.7686 H         1 <0>         0.1662
     26 H9         -1.1994   -6.6937   -1.1464 H         1 <0>         0.1602
     27 H10         0.4901   -0.3383    0.8195 H         1 <0>         0.4287
@<TRIPOS>BOND
     1    1    2 1
     2    1   18 1
     3    1   19 1
     4    1   20 1
     5    2    3 1
     6    2   21 1
     7    2   27 1
     8    3    4 1
     9    3   22 1
    10    3   23 1
    11    4    8 1
    12    4    5 2
    13    5    6 1
    14    5   24 1
    15    6    7 1
    16    7    8 2
    17    7    9 1
    18    9   14 ar
    19    9   10 ar
    20   10   11 ar
    21   10   25 1
    22   11   12 ar
    23   11   17 1
    24   12   13 ar
    25   12   16 1
    26   13   14 ar
    27   13   15 1
    28   14   26 1
@<TRIPOS>MOLECULE
ZINC70840065
   27    28     0     0     0
SMALL
USER_CHARGES

@<TRIPOS>ATOM
      1 C1         -0.0187    1.5258    0.0104 C.3       1 <0>        -0.1750
      2 C2          0.0021   -0.0041    0.0020 C.3       1 <0>         0.1096
      3 H1         -1.0205   -0.3814    0.0098 H         1 <0>         0.1582
      4 C3          0.7074   -0.4901   -1.2379 C.2       1 <0>         0.0396
      5 C4          1.7603   -1.3438   -1.1319 C.2       1 <0>        -0.2588
      6 S1          2.1787   -1.5671   -2.8564 S.3       1 <0>         0.1124
      7 C5          0.9092   -0.5021   -3.5280 C.2       1 <0>         0.1915
      8 N1          0.3031   -0.0943   -2.4219 N.2       1 <0>        -0.4955
      9 C6          0.6121   -0.1698   -4.9380 C.ar      1 <0>        -0.0147
     10 C7         -0.4346    0.7002   -5.2471 C.ar      1 <0>        -0.0714
     11 C8         -0.7077    1.0070   -6.5641 C.ar      1 <0>        -0.0880
     12 C9          0.0531    0.4546   -7.5789 C.ar      1 <0>        -0.1175
     13 C10         1.0938   -0.4098   -7.2799 C.ar      1 <0>         0.1090
     14 C11         1.3805   -0.7201   -5.9639 C.ar      1 <0>        -0.1233
     15 F1          1.8325   -0.9460   -8.2759 F         1 <0>        -0.1260
     16 N2          0.7126   -0.4907    1.1921 N.4       1 <0>        -0.6351
     17 H2          1.0039    1.9031    0.0027 H         1 <0>         0.0808
     18 H3         -0.5459    1.8868   -0.8726 H         1 <0>         0.1152
     19 H4         -0.5289    1.8773    0.9072 H         1 <0>         0.0886
     20 H5          2.2175   -1.7689   -0.2507 H         1 <0>         0.1994
     21 H6         -1.0300    1.1323   -4.4565 H         1 <0>         0.1444
     22 H7         -1.5178    1.6799   -6.8035 H         1 <0>         0.1493
     23 H8         -0.1652    0.6979   -8.6082 H         1 <0>         0.1499
     24 H9          2.1946   -1.3904   -5.7308 H         1 <0>         0.1412
     25 H10         0.2403   -0.1653    2.0223 H         1 <0>         0.4444
     26 H11         0.7262   -1.4996    1.1866 H         1 <0>         0.4369
     27 H12         1.6592   -0.1414    1.1850 H         1 <0>         0.4352
@<TRIPOS>BOND
     1    1    2 1
     2    1   17 1
     3    1   18 1
     4    1   19 1
     5    2    3 1
     6    2    4 1
     7    2   16 1
     8    4    8 1
     9    4    5 2
    10    5    6 1
    11    5   20 1
    12    6    7 1
    13    7    8 2
    14    7    9 1
    15    9   14 ar
    16    9   10 ar
    17   10   11 ar
    18   10   21 1
    19   11   12 ar
    20   11   22 1
    21   12   13 ar
    22   12   23 1
    23   13   14 ar
    24   13   15 1
    25   14   24 1
    26   16   25 1
    27   16   26 1
    28   16   27 1
@<TRIPOS>MOLECULE
ZINC70840072
   27    28     0     0     0
SMALL
USER_CHARGES

@<TRIPOS>ATOM
      1 C1         -0.0187    1.5258    0.0104 C.3       1 <0>        -0.1775
      2 C2          0.0021   -0.0041    0.0020 C.3       1 <0>         0.1174
      3 H1         -1.0205   -0.3814    0.0098 H         1 <0>         0.1537
      4 C3          0.7309   -0.5033    1.2229 C.2       1 <0>        -0.0089
      5 C4          0.1264   -1.3835    2.0645 C.2       1 <0>        -0.1735
      6 S1          1.4142   -1.6112    3.2844 S.3       1 <0>         0.1053
      7 C5          2.6137   -0.5123    2.5423 C.2       1 <0>         0.1773
      8 N1          1.9522   -0.0933    1.4727 N.2       1 <0>        -0.5087
      9 C6          3.9780   -0.1678    2.9967 C.ar      1 <0>        -0.0102
     10 C7          4.7553    0.7293    2.2624 C.ar      1 <0>        -0.0766
     11 C8          6.0276    1.0475    2.6905 C.ar      1 <0>        -0.0879
     12 C9          6.5348    0.4797    3.8455 C.ar      1 <0>        -0.1201
     13 C10         5.7693   -0.4116    4.5798 C.ar      1 <0>         0.1109
     14 C11         4.4911   -0.7336    4.1639 C.ar      1 <0>        -0.1249
     15 F1          6.2711   -0.9627    5.7066 F         1 <0>        -0.1257
     16 N2          0.6897   -0.4778   -1.2066 N.4       1 <0>        -0.6341
     17 H2          1.0039    1.9031    0.0027 H         1 <0>         0.0901
     18 H3         -0.5459    1.8868   -0.8726 H         1 <0>         0.0868
     19 H4         -0.5289    1.8773    0.9072 H         1 <0>         0.1039
     20 H5         -0.8587   -1.8231    2.0112 H         1 <0>         0.2119
     21 H6          4.3614    1.1734    1.3602 H         1 <0>         0.1412
     22 H7          6.6293    1.7413    2.1222 H         1 <0>         0.1480
     23 H8          7.5316    0.7320    4.1759 H         1 <0>         0.1495
     24 H9          3.8929   -1.4250    4.7388 H         1 <0>         0.1415
     25 H10         1.6363   -0.1286   -1.2138 H         1 <0>         0.4381
     26 H11         0.7033   -1.4867   -1.2121 H         1 <0>         0.4348
     27 H12         0.2017   -0.1436   -2.0240 H         1 <0>         0.4377
@<TRIPOS>BOND
     1    1    2 1
     2    1   17 1
     3    1   18 1
     4    1   19 1
     5    2    3 1
     6    2    4 1
     7    2   16 1
     8    4    8 1
     9    4    5 2
    10    5    6 1
    11    5   20 1
    12    6    7 1
    13    7    8 2
    14    7    9 1
    15    9   14 ar
    16    9   10 ar
    17   10   11 ar
    18   10   21 1
    19   11   12 ar
    20   11   22 1
    21   12   13 ar
    22   12   23 1
    23   13   14 ar
    24   13   15 1
    25   14   24 1
    26   16   25 1
    27   16   26 1
    28   16   27 1
@<TRIPOS>MOLECULE
ZINC40420181
   30    31     0     0     0
SMALL
USER_CHARGES

@<TRIPOS>ATOM
      1 C1         -0.0187    1.5258    0.0104 C.3       1 <0>        -0.1901
      2 C2          0.0021   -0.0041    0.0020 C.3       1 <0>        -0.0094
      3 N1         -1.3761   -0.5125    0.0124 N.4       1 <0>        -0.5091
      4 C3         -1.3562   -1.9814    0.0044 C.3       1 <0>         0.0782
      5 C4         -2.7700   -2.5030    0.0151 C.2       1 <0>        -0.0108
      6 C5         -3.3827   -2.8334   -1.1528 C.2       1 <0>        -0.1792
      7 S1         -4.9783   -3.3693   -0.5480 S.3       1 <0>         0.1033
      8 C6         -4.6557   -3.0954    1.1892 C.2       1 <0>         0.1775
      9 N2         -3.4098   -2.6442    1.1520 N.2       1 <0>        -0.5023
     10 C7         -5.5390   -3.3175    2.3542 C.ar      1 <0>        -0.0107
     11 C8         -5.0857   -3.0287    3.6422 C.ar      1 <0>        -0.0755
     12 C9         -5.9136   -3.2377    4.7258 C.ar      1 <0>        -0.0878
     13 C10        -7.1918   -3.7326    4.5388 C.ar      1 <0>        -0.1200
     14 C11        -7.6490   -4.0217    3.2633 C.ar      1 <0>         0.1102
     15 C12        -6.8306   -3.8110    2.1695 C.ar      1 <0>        -0.1249
     16 F1         -8.8982   -4.5052    3.0879 F         1 <0>        -0.1260
     17 H1          1.0039    1.9031    0.0027 H         1 <0>         0.1083
     18 H2         -0.5459    1.8868   -0.8726 H         1 <0>         0.0805
     19 H3         -0.5289    1.8773    0.9072 H         1 <0>         0.0807
     20 H4          0.5123   -0.3556   -0.8948 H         1 <0>         0.1326
     21 H5          0.5293   -0.3651    0.8851 H         1 <0>         0.1327
     22 H6         -1.8484   -0.1871    0.8426 H         1 <0>         0.4310
     23 H7         -0.8460   -2.3329   -0.8924 H         1 <0>         0.1461
     24 H8         -0.8290   -2.3425    0.8874 H         1 <0>         0.1455
     25 H9         -3.0096   -2.7853   -2.1651 H         1 <0>         0.2117
     26 H10        -4.0880   -2.6426    3.7905 H         1 <0>         0.1422
     27 H11        -5.5628   -3.0146    5.7226 H         1 <0>         0.1483
     28 H12        -7.8357   -3.8947    5.3906 H         1 <0>         0.1494
     29 H13        -7.1887   -4.0321    1.1749 H         1 <0>         0.1414
     30 H14        -1.8641   -0.1783   -0.8050 H         1 <0>         0.4261
@<TRIPOS>BOND
     1    1    2 1
     2    1   17 1
     3    1   18 1
     4    1   19 1
     5    2    3 1
     6    2   20 1
     7    2   21 1
     8    3    4 1
     9    3   22 1
    10    3   30 1
    11    4    5 1
    12    4   23 1
    13    4   24 1
    14    5    9 1
    15    5    6 2
    16    6    7 1
    17    6   25 1
    18    7    8 1
    19    8    9 2
    20    8   10 1
    21   10   15 ar
    22   10   11 ar
    23   11   12 ar
    24   11   26 1
    25   12   13 ar
    26   12   27 1
    27   13   14 ar
    28   13   28 1
    29   14   15 ar
    30   14   16 1
    31   15   29 1
@<TRIPOS>MOLECULE
ZINC61847351
   27    28     0     0     0
SMALL
USER_CHARGES

@<TRIPOS>ATOM
      1 C1         -0.0178    1.4648    0.0101 C.3       1 <0>        -0.0468
      2 N1          0.0021   -0.0041    0.0020 N.4       1 <0>        -0.5086
      3 C2          0.6897   -0.4778   -1.2066 C.3       1 <0>         0.0765
      4 C3          0.7101   -1.9847   -1.2149 C.2       1 <0>        -0.0161
      5 C4         -0.2477   -2.6746   -1.8884 C.2       1 <0>        -0.2018
      6 S1          0.2638   -4.3564   -1.5592 S.3       1 <0>         0.1425
      7 C5          1.6940   -3.9580   -0.5628 C.2       1 <0>         0.1589
      8 N2          1.6561   -2.6328   -0.5760 N.2       1 <0>        -0.4986
      9 C6          2.6615   -4.8625    0.0937 C.ar      1 <0>        -0.0371
     10 C7          3.7170   -4.3363    0.8402 C.ar      1 <0>        -0.0242
     11 C8          4.6165   -5.1844    1.4510 C.ar      1 <0>        -0.1470
     12 C9          4.4745   -6.5575    1.3252 C.ar      1 <0>         0.1511
     13 C10         3.4292   -7.0862    0.5858 C.ar      1 <0>        -0.1412
     14 C11         2.5195   -6.2467   -0.0258 C.ar      1 <0>         0.0095
     15 Cl1         1.2057   -6.9101   -0.9463 Cl        1 <0>        -0.0136
     16 F1          5.3592   -7.3834    1.9256 F         1 <0>        -0.1157
     17 H1          1.0047    1.8421    0.0024 H         1 <0>         0.1251
     18 H2         -0.5450    1.8259   -0.8730 H         1 <0>         0.1249
     19 H3         -0.5280    1.8163    0.9069 H         1 <0>         0.1275
     20 H4          0.4901   -0.3383    0.8195 H         1 <0>         0.4328
     21 H5          0.1625   -0.1167   -2.0897 H         1 <0>         0.1452
     22 H6          1.7123   -0.1005   -1.2143 H         1 <0>         0.1442
     23 H7         -1.0858   -2.3087   -2.4630 H         1 <0>         0.2072
     24 H8          3.8293   -3.2667    0.9389 H         1 <0>         0.1562
     25 H9          5.4337   -4.7778    2.0285 H         1 <0>         0.1582
     26 H10         3.3234   -8.1568    0.4907 H         1 <0>         0.1626
     27 H11        -0.9445   -0.3533    0.0092 H         1 <0>         0.4284
@<TRIPOS>BOND
     1    1    2 1
     2    1   17 1
     3    1   18 1
     4    1   19 1
     5    2    3 1
     6    2   20 1
     7    2   27 1
     8    3    4 1
     9    3   21 1
    10    3   22 1
    11    4    8 1
    12    4    5 2
    13    5    6 1
    14    5   23 1
    15    6    7 1
    16    7    8 2
    17    7    9 1
    18    9   14 ar
    19    9   10 ar
    20   10   11 ar
    21   10   24 1
    22   11   12 ar
    23   11   25 1
    24   12   13 ar
    25   12   16 1
    26   13   14 ar
    27   13   26 1
    28   14   15 1
@<TRIPOS>MOLECULE
ZINC78697930
   40    42     0     0     0
SMALL
USER_CHARGES

@<TRIPOS>ATOM
      1 C1         -0.0184    1.5028    0.0103 C.3       1 <0>        -0.1280
      2 C2          0.0021   -0.0041    0.0020 C.ar      1 <0>        -0.0442
      3 C3          0.0057   -0.6862   -1.2016 C.ar      1 <0>        -0.1184
      4 C4          0.0249   -2.0657   -1.2161 C.ar      1 <0>        -0.0776
      5 C5          0.0405   -2.7729   -0.0132 C.ar      1 <0>        -0.0528
      6 C6          0.0368   -2.0788    1.1974 C.ar      1 <0>        -0.0567
      7 C7          0.0229   -0.6992    1.1980 C.ar      1 <0>        -0.1240
      8 C8          0.0606   -4.2514   -0.0214 C.2       1 <0>         0.1911
      9 N1          0.0718   -5.0983    0.9984 N.2       1 <0>        -0.5116
     10 C9          0.0895   -6.3962    0.8061 C.2       1 <0>        -0.0076
     11 C10         0.0966   -6.8936   -0.4593 C.2       1 <0>        -0.1860
     12 S1          0.0683   -5.3786   -1.4093 S.3       1 <0>         0.0897
     13 C11         0.1024   -7.3339    1.9857 C.3       1 <0>         0.0774
     14 N2          1.4849   -7.5249    2.4443 N.4       1 <0>        -0.5090
     15 C12         1.4975   -8.4389    3.5942 C.3       1 <0>         0.0493
     16 C13         2.9157   -8.6348    4.0647 C.ar      1 <0>        -0.1688
     17 C14         3.6851   -9.6535    3.5337 C.ar      1 <0>        -0.0573
     18 C15         4.9860   -9.8344    3.9636 C.ar      1 <0>        -0.1386
     19 C16         5.5194   -8.9950    4.9267 C.ar      1 <0>         0.1503
     20 C17         4.7480   -7.9744    5.4585 C.ar      1 <0>        -0.0803
     21 C18         3.4480   -7.7924    5.0225 C.ar      1 <0>        -0.0549
     22 Cl1         5.4147   -6.9206    6.6663 Cl        1 <0>        -0.0183
     23 F1          6.7909   -9.1713    5.3479 F         1 <0>        -0.1084
     24 H1          1.0042    1.8801    0.0026 H         1 <0>         0.0814
     25 H2         -0.5455    1.8639   -0.8728 H         1 <0>         0.0752
     26 H3         -0.5286    1.8543    0.9071 H         1 <0>         0.0747
     27 H4         -0.0068   -0.1377   -2.1319 H         1 <0>         0.1376
     28 H5          0.0273   -2.5970   -2.1564 H         1 <0>         0.1286
     29 H6          0.0485   -2.6203    2.1317 H         1 <0>         0.1346
     30 H7          0.0244   -0.1607    2.1343 H         1 <0>         0.1360
     31 H8          0.1111   -7.9193   -0.7971 H         1 <0>         0.2098
     32 H9         -0.4931   -6.9093    2.7939 H         1 <0>         0.1468
     33 H10        -0.3185   -8.2951    1.6905 H         1 <0>         0.1477
     34 H11         2.0362   -7.9179    1.6962 H         1 <0>         0.4264
     35 H12         0.9020   -8.0144    4.4024 H         1 <0>         0.1446
     36 H13         1.0766   -9.4001    3.2990 H         1 <0>         0.1462
     37 H14         3.2690  -10.3086    2.7826 H         1 <0>         0.1504
     38 H15         5.5862  -10.6305    3.5485 H         1 <0>         0.1599
     39 H16         2.8475   -6.9943    5.4333 H         1 <0>         0.1533
     40 H17         1.8745   -6.6352    2.7176 H         1 <0>         0.4316
@<TRIPOS>BOND
     1    1    2 1
     2    1   24 1
     3    1   25 1
     4    1   26 1
     5    2    7 ar
     6    2    3 ar
     7    3    4 ar
     8    3   27 1
     9    4    5 ar
    10    4   28 1
    11    5    6 ar
    12    5    8 1
    13    6    7 ar
    14    6   29 1
    15    7   30 1
    16    8   12 1
    17    8    9 2
    18    9   10 1
    19   10   11 2
    20   10   13 1
    21   11   12 1
    22   11   31 1
    23   13   14 1
    24   13   32 1
    25   13   33 1
    26   14   15 1
    27   14   34 1
    28   14   40 1
    29   15   16 1
    30   15   35 1
    31   15   36 1
    32   16   21 ar
    33   16   17 ar
    34   17   18 ar
    35   17   37 1
    36   18   19 ar
    37   18   38 1
    38   19   20 ar
    39   19   23 1
    40   20   21 ar
    41   20   22 1
    42   21   39 1
@<TRIPOS>MOLECULE
ZINC78697930
   39    41     0     0     0
SMALL
USER_CHARGES

@<TRIPOS>ATOM
      1 C1         -0.0184    1.5028    0.0103 C.3       1 <0>        -0.1208
      2 C2          0.0021   -0.0041    0.0020 C.ar      1 <0>        -0.0632
      3 C3          0.0057   -0.6862   -1.2016 C.ar      1 <0>        -0.1204
      4 C4          0.0249   -2.0657   -1.2161 C.ar      1 <0>        -0.0861
      5 C5          0.0405   -2.7729   -0.0132 C.ar      1 <0>        -0.0274
      6 C6          0.0368   -2.0788    1.1974 C.ar      1 <0>        -0.0622
      7 C7          0.0229   -0.6992    1.1980 C.ar      1 <0>        -0.1226
      8 C8          0.0606   -4.2514   -0.0214 C.2       1 <0>         0.1639
      9 N1          0.0718   -5.0983    0.9984 N.2       1 <0>        -0.4808
     10 C9          0.0895   -6.3962    0.8061 C.2       1 <0>         0.0665
     11 C10         0.0966   -6.8936   -0.4593 C.2       1 <0>        -0.2028
     12 S1          0.0683   -5.3786   -1.4093 S.3       1 <0>         0.0104
     13 C11         0.1024   -7.3339    1.9857 C.3       1 <0>         0.1294
     14 N2          1.4849   -7.5249    2.4443 N.3       1 <0>        -0.6771
     15 C12         1.5365   -8.4354    3.5960 C.3       1 <0>         0.1005
     16 C13         2.9672   -8.6065    4.0373 C.ar      1 <0>        -0.0836
     17 C14         3.7422   -9.6139    3.4929 C.ar      1 <0>        -0.0799
     18 C15         5.0545   -9.7720    3.8961 C.ar      1 <0>        -0.1418
     19 C16         5.5939   -8.9213    4.8459 C.ar      1 <0>         0.1109
     20 C17         4.8169   -7.9121    5.3911 C.ar      1 <0>        -0.0751
     21 C18         3.5052   -7.7528    4.9818 C.ar      1 <0>        -0.0580
     22 Cl1         5.4909   -6.8441    6.5822 Cl        1 <0>        -0.0461
     23 F1          6.8766   -9.0754    5.2410 F         1 <0>        -0.1257
     24 H1          1.0042    1.8801    0.0026 H         1 <0>         0.0757
     25 H2         -0.5455    1.8639   -0.8728 H         1 <0>         0.0700
     26 H3         -0.5286    1.8543    0.9071 H         1 <0>         0.0703
     27 H4         -0.0068   -0.1377   -2.1319 H         1 <0>         0.1314
     28 H5          0.0273   -2.5970   -2.1564 H         1 <0>         0.1267
     29 H6          0.0485   -2.6203    2.1317 H         1 <0>         0.1369
     30 H7          0.0244   -0.1607    2.1343 H         1 <0>         0.1314
     31 H8          0.1111   -7.9193   -0.7971 H         1 <0>         0.1974
     32 H9         -0.4931   -6.9093    2.7939 H         1 <0>         0.0920
     33 H10        -0.3185   -8.2951    1.6905 H         1 <0>         0.0504
     34 H11         0.9509   -8.0185    4.4153 H         1 <0>         0.0890
     35 H12         1.1255   -9.4042    3.3119 H         1 <0>         0.0479
     36 H13         3.3215  -10.2778    2.7522 H         1 <0>         0.1374
     37 H14         5.6591  -10.5593    3.4706 H         1 <0>         0.1461
     38 H15         2.9002   -6.9635    5.4031 H         1 <0>         0.1455
     39 H16         2.0721   -7.8571    1.6941 H         1 <0>         0.3435
@<TRIPOS>BOND
     1    1    2 1
     2    1   24 1
     3    1   25 1
     4    1   26 1
     5    2    7 ar
     6    2    3 ar
     7    3    4 ar
     8    3   27 1
     9    4    5 ar
    10    4   28 1
    11    5    6 ar
    12    5    8 1
    13    6    7 ar
    14    6   29 1
    15    7   30 1
    16    8   12 1
    17    8    9 2
    18    9   10 1
    19   10   11 2
    20   10   13 1
    21   11   12 1
    22   11   31 1
    23   13   14 1
    24   13   32 1
    25   13   33 1
    26   14   15 1
    27   14   39 1
    28   15   16 1
    29   15   34 1
    30   15   35 1
    31   16   21 ar
    32   16   17 ar
    33   17   18 ar
    34   17   36 1
    35   18   19 ar
    36   18   37 1
    37   19   20 ar
    38   19   23 1
    39   20   21 ar
    40   20   22 1
    41   21   38 1
@<TRIPOS>MOLECULE
ZINC72063817
   37    39     0     0     0
SMALL
USER_CHARGES

@<TRIPOS>ATOM
      1 C1         -0.0169    1.3914    0.0097 C.ar      1 <0>        -0.0533
      2 C2          1.1695    2.0947    0.0021 C.ar      1 <0>        -0.1501
      3 C3          2.3789    1.4182   -0.0135 C.ar      1 <0>         0.1394
      4 C4          2.4033    0.0326   -0.0212 C.ar      1 <0>        -0.1556
      5 C5          1.2228   -0.6804   -0.0137 C.ar      1 <0>        -0.0328
      6 C6          0.0021   -0.0041    0.0020 C.ar      1 <0>        -0.0552
      7 C7         -1.2666   -0.7632    0.0105 C.2       1 <0>         0.1847
      8 N1         -1.4625   -2.0744    0.0109 N.2       1 <0>        -0.5077
      9 C8         -2.6728   -2.5824    0.0199 C.2       1 <0>        -0.0086
     10 C9         -3.7535   -1.7580    0.0291 C.2       1 <0>        -0.1818
     11 S1         -2.9497   -0.1603    0.0311 S.3       1 <0>         0.0974
     12 C10        -2.8638   -4.0772    0.0196 C.3       1 <0>         0.0772
     13 N2         -2.8166   -4.5766   -1.3611 N.4       1 <0>        -0.5092
     14 C11        -3.0028   -6.0337   -1.3614 C.3       1 <0>         0.0494
     15 C12        -2.9544   -6.5460   -2.7779 C.ar      1 <0>        -0.1691
     16 C13        -4.1157   -6.6240   -3.5242 C.ar      1 <0>        -0.0573
     17 C14        -4.0730   -7.0931   -4.8234 C.ar      1 <0>        -0.1387
     18 C15        -2.8668   -7.4853   -5.3783 C.ar      1 <0>         0.1505
     19 C16        -1.7035   -7.4070   -4.6299 C.ar      1 <0>        -0.0803
     20 C17        -1.7483   -6.9321   -3.3315 C.ar      1 <0>        -0.0549
     21 Cl1        -0.1897   -7.8982   -5.3235 Cl        1 <0>        -0.0182
     22 F1         -2.8242   -7.9445   -6.6482 F         1 <0>        -0.1082
     23 F2          3.5381    2.1119   -0.0217 F         1 <0>        -0.1240
     24 H1         -0.9588    1.9196    0.0260 H         1 <0>         0.1394
     25 H2          1.1559    3.1746    0.0081 H         1 <0>         0.1519
     26 H3          3.3485   -0.4898   -0.0334 H         1 <0>         0.1502
     27 H4          1.2429   -1.7602   -0.0204 H         1 <0>         0.1455
     28 H5         -4.8058   -2.0005    0.0368 H         1 <0>         0.2110
     29 H6         -2.0705   -4.5450    0.6025 H         1 <0>         0.1473
     30 H7         -3.8305   -4.3200    0.4609 H         1 <0>         0.1481
     31 H8         -3.5510   -4.1435   -1.9007 H         1 <0>         0.4265
     32 H9         -2.2095   -6.5016   -0.7785 H         1 <0>         0.1448
     33 H10        -3.9695   -6.2766   -0.9201 H         1 <0>         0.1463
     34 H11        -5.0568   -6.3185   -3.0915 H         1 <0>         0.1504
     35 H12        -4.9806   -7.1541   -5.4057 H         1 <0>         0.1599
     36 H13        -0.8412   -6.8665   -2.7491 H         1 <0>         0.1533
     37 H14        -1.9218   -4.3518   -1.7696 H         1 <0>         0.4316
@<TRIPOS>BOND
     1    1    6 ar
     2    1    2 ar
     3    1   24 1
     4    2    3 ar
     5    2   25 1
     6    3    4 ar
     7    3   23 1
     8    4    5 ar
     9    4   26 1
    10    5    6 ar
    11    5   27 1
    12    6    7 1
    13    7   11 1
    14    7    8 2
    15    8    9 1
    16    9   10 2
    17    9   12 1
    18   10   11 1
    19   10   28 1
    20   12   13 1
    21   12   29 1
    22   12   30 1
    23   13   14 1
    24   13   31 1
    25   13   37 1
    26   14   15 1
    27   14   32 1
    28   14   33 1
    29   15   20 ar
    30   15   16 ar
    31   16   17 ar
    32   16   34 1
    33   17   18 ar
    34   17   35 1
    35   18   19 ar
    36   18   22 1
    37   19   20 ar
    38   19   21 1
    39   20   36 1
@<TRIPOS>MOLECULE
ZINC72063817
   36    38     0     0     0
SMALL
USER_CHARGES

@<TRIPOS>ATOM
      1 C1         -0.0169    1.3914    0.0097 C.ar      1 <0>        -0.0622
      2 C2          1.1695    2.0947    0.0021 C.ar      1 <0>        -0.1516
      3 C3          2.3789    1.4182   -0.0135 C.ar      1 <0>         0.1206
      4 C4          2.4033    0.0326   -0.0212 C.ar      1 <0>        -0.1538
      5 C5          1.2228   -0.6804   -0.0137 C.ar      1 <0>        -0.0385
      6 C6          0.0021   -0.0041    0.0020 C.ar      1 <0>        -0.0294
      7 C7         -1.2666   -0.7632    0.0105 C.2       1 <0>         0.1571
      8 N1         -1.4625   -2.0744    0.0109 N.2       1 <0>        -0.4768
      9 C8         -2.6728   -2.5824    0.0199 C.2       1 <0>         0.0655
     10 C9         -3.7535   -1.7580    0.0291 C.2       1 <0>        -0.1982
     11 S1         -2.9497   -0.1603    0.0311 S.3       1 <0>         0.0177
     12 C10        -2.8638   -4.0772    0.0196 C.3       1 <0>         0.1290
     13 N2         -2.8166   -4.5766   -1.3611 N.3       1 <0>        -0.6772
     14 C11        -2.9997   -6.0336   -1.4005 C.3       1 <0>         0.1007
     15 C12        -2.9454   -6.5082   -2.8298 C.ar      1 <0>        -0.0839
     16 C13        -4.1040   -6.5689   -3.5819 C.ar      1 <0>        -0.0799
     17 C14        -4.0560   -7.0035   -4.8929 C.ar      1 <0>        -0.1418
     18 C15        -2.8471   -7.3784   -5.4538 C.ar      1 <0>         0.1111
     19 C16        -1.6864   -7.3174   -4.6997 C.ar      1 <0>        -0.0751
     20 C17        -1.7366   -6.8771   -3.3893 C.ar      1 <0>        -0.0580
     21 Cl1        -0.1693   -7.7870   -5.4008 Cl        1 <0>        -0.0458
     22 F1         -2.7992   -7.8038   -6.7352 F         1 <0>        -0.1256
     23 F2          3.5381    2.1119   -0.0217 F         1 <0>        -0.1324
     24 H1         -0.9588    1.9196    0.0260 H         1 <0>         0.1375
     25 H2          1.1559    3.1746    0.0081 H         1 <0>         0.1456
     26 H3          3.3485   -0.4898   -0.0334 H         1 <0>         0.1457
     27 H4          1.2429   -1.7602   -0.0204 H         1 <0>         0.1478
     28 H5         -4.8058   -2.0005    0.0368 H         1 <0>         0.1986
     29 H6         -2.0705   -4.5450    0.6025 H         1 <0>         0.0926
     30 H7         -3.8305   -4.3200    0.4609 H         1 <0>         0.0509
     31 H8         -2.2073   -6.5150   -0.8274 H         1 <0>         0.0892
     32 H9         -3.9673   -6.2900   -0.9690 H         1 <0>         0.0481
     33 H10        -5.0472   -6.2769   -3.1444 H         1 <0>         0.1374
     34 H11        -4.9615   -7.0510   -5.4796 H         1 <0>         0.1461
     35 H12        -0.8316   -6.8250   -2.8023 H         1 <0>         0.1455
     36 H13        -3.5008   -4.1104   -1.9378 H         1 <0>         0.3436
@<TRIPOS>BOND
     1    1    6 ar
     2    1    2 ar
     3    1   24 1
     4    2    3 ar
     5    2   25 1
     6    3    4 ar
     7    3   23 1
     8    4    5 ar
     9    4   26 1
    10    5    6 ar
    11    5   27 1
    12    6    7 1
    13    7   11 1
    14    7    8 2
    15    8    9 1
    16    9   10 2
    17    9   12 1
    18   10   11 1
    19   10   28 1
    20   12   13 1
    21   12   29 1
    22   12   30 1
    23   13   14 1
    24   13   36 1
    25   14   15 1
    26   14   31 1
    27   14   32 1
    28   15   20 ar
    29   15   16 ar
    30   16   17 ar
    31   16   33 1
    32   17   18 ar
    33   17   34 1
    34   18   19 ar
    35   18   22 1
    36   19   20 ar
    37   19   21 1
    38   20   35 1
@<TRIPOS>MOLECULE
ZINC11851544
   27    28     0     0     0
SMALL
USER_CHARGES
[3-(4-methylthiazol-2-yl)phenyl]methanamine
@<TRIPOS>ATOM
      1 C1          1.1208   -2.1770   -0.0198 C.3       1 <0>        -0.0893
      2 C2          1.1326   -0.6701   -0.0124 C.2       1 <0>         0.0568
      3 C3          2.3147    0.0016   -0.0200 C.2       1 <0>        -0.1785
      4 S1          1.7330    1.6928   -0.0054 S.3       1 <0>         0.0139
      5 C4         -0.0159    1.3214    0.0093 C.2       1 <0>         0.1217
      6 N1          0.0021   -0.0041    0.0020 N.2       1 <0>        -0.4789
      7 C5         -1.1712    2.2442    0.0201 C.ar      1 <0>         0.0040
      8 C6         -2.4721    1.7386    0.0180 C.ar      1 <0>        -0.0406
      9 C7         -3.5456    2.6049    0.0325 C.ar      1 <0>        -0.1095
     10 C8         -3.3348    3.9724    0.0388 C.ar      1 <0>        -0.0786
     11 C9         -2.0480    4.4800    0.0361 C.ar      1 <0>        -0.1679
     12 C10        -0.9656    3.6243    0.0266 C.ar      1 <0>        -0.0741
     13 C11        -1.8278    5.9708    0.0431 C.3       1 <0>         0.0529
     14 H1          1.1084   -2.5352   -1.0492 H         1 <0>         0.0796
     15 H2          2.0127   -2.5499    0.4838 H         1 <0>         0.0799
     16 H3          0.2329   -2.5360    0.5005 H         1 <0>         0.0786
     17 H4          3.3248   -0.3802   -0.0317 H         1 <0>         0.2065
     18 H5         -2.6379    0.6714    0.0088 H         1 <0>         0.1481
     19 H6         -4.5527    2.2149    0.0346 H         1 <0>         0.1457
     20 H7         -4.1786    4.6464    0.0456 H         1 <0>         0.1388
     21 H8          0.0386    4.0218    0.0237 H         1 <0>         0.1358
     22 H9         -2.6528    6.4575    0.5634 H         1 <0>         0.1450
     23 H10        -0.8919    6.1975    0.5539 H         1 <0>         0.1396
     24 H11        -2.5928    6.2081   -1.8534 H         1 <0>         0.4373
     25 H12        -1.6154    7.4606   -1.3618 H         1 <0>         0.4408
     26 N2         -1.7423    6.4500   -1.3477 N.4       1 <0>        -0.6466
     27 H13        -0.9401    6.0052   -1.8093 H         1 <0>         0.4390
@<TRIPOS>BOND
     1    1    2 1
     2    1   14 1
     3    1   15 1
     4    1   16 1
     5    2    6 1
     6    2    3 2
     7    3    4 1
     8    3   17 1
     9    4    5 1
    10    5    6 2
    11    5    7 1
    12    7   12 ar
    13    7    8 ar
    14    8    9 ar
    15    8   18 1
    16    9   10 ar
    17    9   19 1
    18   10   11 ar
    19   10   20 1
    20   11   12 ar
    21   11   13 1
    22   12   21 1
    23   13   22 1
    24   13   23 1
    25   13   26 1
    26   24   26 1
    27   25   26 1
    28   26   27 1
@<TRIPOS>MOLECULE
ZINC40999769
   34    36     0     0     0
SMALL
USER_CHARGES

@<TRIPOS>ATOM
      1 C1         -0.0173    1.4248    0.0099 C.3       1 <0>         0.0221
      2 O1          0.0021   -0.0041    0.0020 O.3       1 <0>        -0.3114
      3 C2          0.6057   -0.6070   -1.0555 C.ar      1 <0>         0.1540
      4 C3          1.1740    0.1770   -2.0645 C.ar      1 <0>        -0.1853
      5 C4          1.7848   -0.3976   -3.1348 C.ar      1 <0>        -0.0557
      6 C5          1.8485   -1.7999   -3.2323 C.ar      1 <0>        -0.0913
      7 C6          2.4723   -2.4219   -4.3240 C.ar      1 <0>        -0.0376
      8 C7          2.5164   -3.8044   -4.3864 C.ar      1 <0>        -0.0543
      9 C8          1.9417   -4.5840   -3.3667 C.ar      1 <0>        -0.0676
     10 C9          1.3337   -3.9998   -2.3031 C.ar      1 <0>        -0.1067
     11 C10         1.2730   -2.5968   -2.2099 C.ar      1 <0>         0.0119
     12 C11         0.6542   -1.9710   -1.1161 C.ar      1 <0>        -0.1639
     13 C12         3.1722   -4.4660   -5.5338 C.2       1 <0>         0.1929
     14 N1          3.3186   -5.7589   -5.7886 N.2       1 <0>        -0.5123
     15 C13         3.9357   -6.1746   -6.8696 C.2       1 <0>        -0.0107
     16 C14         4.4386   -5.2713   -7.7524 C.2       1 <0>        -0.1867
     17 S1          3.9747   -3.7384   -6.9564 S.3       1 <0>         0.0856
     18 C15         4.0872   -7.6509   -7.1317 C.3       1 <0>         0.0793
     19 N2          5.2760   -8.1534   -6.4301 N.4       1 <0>        -0.6348
     20 H1          1.0053    1.8021    0.0021 H         1 <0>         0.0600
     21 H2         -0.5445    1.7859   -0.8732 H         1 <0>         0.0601
     22 H3         -0.5275    1.7763    0.9067 H         1 <0>         0.1073
     23 H4          1.1269    1.2536   -1.9927 H         1 <0>         0.1391
     24 H5          2.2190    0.2198   -3.9072 H         1 <0>         0.1385
     25 H6          2.9143   -1.8271   -5.1097 H         1 <0>         0.1330
     26 H7          1.9845   -5.6612   -3.4309 H         1 <0>         0.1346
     27 H8          0.8965   -4.6117   -1.5280 H         1 <0>         0.1404
     28 H9          0.2149   -2.5650   -0.3283 H         1 <0>         0.1426
     29 H10         4.9682   -5.4342   -8.6794 H         1 <0>         0.2097
     30 H11         3.2031   -8.1765   -6.7709 H         1 <0>         0.1472
     31 H12         4.1987   -7.8202   -8.2027 H         1 <0>         0.1478
     32 H13         6.0944   -7.6668   -6.7641 H         1 <0>         0.4336
     33 H14         5.1727   -7.9967   -5.4387 H         1 <0>         0.4385
     34 H15         5.3774   -9.1418   -6.6056 H         1 <0>         0.4401
@<TRIPOS>BOND
     1    1    2 1
     2    1   20 1
     3    1   21 1
     4    1   22 1
     5    2    3 1
     6    3   12 ar
     7    3    4 ar
     8    4    5 ar
     9    4   23 1
    10    5    6 ar
    11    5   24 1
    12    6   11 ar
    13    6    7 ar
    14    7    8 ar
    15    7   25 1
    16    8    9 ar
    17    8   13 1
    18    9   10 ar
    19    9   26 1
    20   10   11 ar
    21   10   27 1
    22   11   12 ar
    23   12   28 1
    24   13   17 1
    25   13   14 2
    26   14   15 1
    27   15   16 2
    28   15   18 1
    29   16   17 1
    30   16   29 1
    31   18   19 1
    32   18   30 1
    33   18   31 1
    34   19   32 1
    35   19   33 1
    36   19   34 1
@<TRIPOS>MOLECULE
ZINC41010003
   36    38     0     0     0
SMALL
USER_CHARGES

@<TRIPOS>ATOM
      1 C1         -0.0187    1.5258    0.0104 C.3       1 <0>        -0.1900
      2 C2          0.0021   -0.0041    0.0020 C.3       1 <0>        -0.0095
      3 N1          0.7126   -0.4907    1.1921 N.4       1 <0>        -0.5089
      4 C3          0.7325   -1.9595    1.1840 C.3       1 <0>         0.0780
      5 C4          1.4614   -2.4588    2.4049 C.2       1 <0>        -0.0081
      6 C5          0.7646   -2.8029    3.5208 C.2       1 <0>        -0.1846
      7 S1          2.0990   -3.3017    4.6021 S.3       1 <0>         0.0892
      8 C6          3.4351   -2.9982    3.4534 C.2       1 <0>         0.1873
      9 N2          2.7689   -2.5672    2.3912 N.2       1 <0>        -0.5089
     10 C7          4.8901   -3.1834    3.6367 C.ar      1 <0>        -0.0383
     11 C8          5.7710   -2.8711    2.5859 C.ar      1 <0>        -0.0805
     12 C9          7.1110   -3.0324    2.7298 C.ar      1 <0>        -0.0967
     13 C10         7.6353   -3.5177    3.9418 C.ar      1 <0>        -0.0307
     14 C11         9.0185   -3.6930    4.1145 C.ar      1 <0>        -0.1121
     15 C12         9.4964   -4.1641    5.2990 C.ar      1 <0>        -0.0955
     16 C13         8.6337   -4.4773    6.3477 C.ar      1 <0>        -0.1085
     17 C14         7.2881   -4.3206    6.2178 C.ar      1 <0>        -0.1004
     18 C15         6.7574   -3.8358    5.0089 C.ar      1 <0>        -0.0577
     19 C16         5.3755   -3.6575    4.8434 C.ar      1 <0>        -0.0530
     20 H1          1.0039    1.9031    0.0027 H         1 <0>         0.0807
     21 H2         -0.5459    1.8868   -0.8726 H         1 <0>         0.1081
     22 H3         -0.5289    1.8773    0.9072 H         1 <0>         0.0804
     23 H4         -1.0205   -0.3814    0.0098 H         1 <0>         0.1324
     24 H5          0.5123   -0.3556   -0.8948 H         1 <0>         0.1325
     25 H6          1.6592   -0.1414    1.1850 H         1 <0>         0.4310
     26 H7         -0.2901   -2.3368    1.1918 H         1 <0>         0.1455
     27 H8          1.2427   -2.3111    0.2873 H         1 <0>         0.1448
     28 H9         -0.2996   -2.7808    3.7035 H         1 <0>         0.2100
     29 H10         5.3761   -2.4984    1.6523 H         1 <0>         0.1340
     30 H11         7.7749   -2.7886    1.9135 H         1 <0>         0.1390
     31 H12         9.6998   -3.4554    3.3109 H         1 <0>         0.1347
     32 H13        10.5604   -4.2975    5.4278 H         1 <0>         0.1317
     33 H14         9.0388   -4.8501    7.2769 H         1 <0>         0.1318
     34 H15         6.6312   -4.5676    7.0386 H         1 <0>         0.1332
     35 H16         4.6959   -3.8922    5.6492 H         1 <0>         0.1334
     36 H17         0.2403   -0.1653    2.0223 H         1 <0>         0.4260
@<TRIPOS>BOND
     1    1    2 1
     2    1   20 1
     3    1   21 1
     4    1   22 1
     5    2    3 1
     6    2   23 1
     7    2   24 1
     8    3    4 1
     9    3   25 1
    10    3   36 1
    11    4    5 1
    12    4   26 1
    13    4   27 1
    14    5    9 1
    15    5    6 2
    16    6    7 1
    17    6   28 1
    18    7    8 1
    19    8    9 2
    20    8   10 1
    21   10   19 ar
    22   10   11 ar
    23   11   12 ar
    24   11   29 1
    25   12   13 ar
    26   12   30 1
    27   13   18 ar
    28   13   14 ar
    29   14   15 ar
    30   14   31 1
    31   15   16 ar
    32   15   32 1
    33   16   17 ar
    34   16   33 1
    35   17   18 ar
    36   17   34 1
    37   18   19 ar
    38   19   35 1
@<TRIPOS>MOLECULE
ZINC52201441
   30    31     0     0     0
SMALL
USER_CHARGES

@<TRIPOS>ATOM
      1 C1          0.0860    1.4092    0.0609 C.3       1 <0>        -0.1477
      2 C2          0.0411   -0.1179   -0.0217 C.3       1 <0>        -0.0979
      3 C3         -1.3930   -0.5803    0.0013 C.ar      1 <0>        -0.0311
      4 C4         -1.9605   -1.0148    1.1817 C.ar      1 <0>        -0.1189
      5 C5         -3.2770   -1.4391    1.2046 C.ar      1 <0>        -0.0805
      6 C6         -4.0330   -1.4314    0.0456 C.ar      1 <0>        -0.1194
      7 C7         -3.4775   -0.9994   -1.1409 C.ar      1 <0>        -0.0785
      8 C8         -2.1516   -0.5646   -1.1696 C.ar      1 <0>        -0.0450
      9 C9         -1.5514   -0.0950   -2.4368 C.2       1 <0>         0.1943
     10 N1         -0.3852   -0.4096   -2.9828 N.2       1 <0>        -0.5009
     11 C10        -0.0070    0.1082   -4.1278 C.2       1 <0>        -0.0172
     12 C11        -0.8189    0.9854   -4.7757 C.2       1 <0>        -0.1823
     13 S1         -2.2068    1.0441   -3.6492 S.3       1 <0>         0.0908
     14 C12         1.3251   -0.2685   -4.7232 C.3       1 <0>         0.0792
     15 N2          2.3758    0.5841   -4.1514 N.4       1 <0>        -0.6353
     16 H1          1.1233    1.7436    0.0442 H         1 <0>         0.0590
     17 H2         -0.4467    1.8348   -0.7895 H         1 <0>         0.0463
     18 H3         -0.3866    1.7370    0.9868 H         1 <0>         0.0642
     19 H4          0.5137   -0.4458   -0.9476 H         1 <0>         0.0856
     20 H5          0.5738   -0.5436    0.8287 H         1 <0>         0.0800
     21 H6         -1.3756   -1.0240    2.0895 H         1 <0>         0.1353
     22 H7         -3.7165   -1.7783    2.1309 H         1 <0>         0.1358
     23 H8         -5.0600   -1.7646    0.0700 H         1 <0>         0.1376
     24 H9         -4.0686   -0.9938   -2.0448 H         1 <0>         0.1300
     25 H10        -0.6693    1.5004   -5.7131 H         1 <0>         0.2096
     26 H11         1.5417   -1.3127   -4.4976 H         1 <0>         0.1473
     27 H12         1.2924   -0.1295   -5.8038 H         1 <0>         0.1482
     28 H13         2.1753    1.5507   -4.3602 H         1 <0>         0.4337
     29 H14         2.4060    0.4555   -3.1511 H         1 <0>         0.4374
     30 H15         3.2677    0.3319   -4.5500 H         1 <0>         0.4404
@<TRIPOS>BOND
     1    1    2 1
     2    1   16 1
     3    1   17 1
     4    1   18 1
     5    2    3 1
     6    2   19 1
     7    2   20 1
     8    3    8 ar
     9    3    4 ar
    10    4    5 ar
    11    4   21 1
    12    5    6 ar
    13    5   22 1
    14    6    7 ar
    15    6   23 1
    16    7    8 ar
    17    7   24 1
    18    8    9 1
    19    9   13 1
    20    9   10 2
    21   10   11 1
    22   11   12 2
    23   11   14 1
    24   12   13 1
    25   12   25 1
    26   14   15 1
    27   14   26 1
    28   14   27 1
    29   15   28 1
    30   15   29 1
    31   15   30 1
@<TRIPOS>MOLECULE
ZINC85708133
   27    28     0     0     0
SMALL
USER_CHARGES

@<TRIPOS>ATOM
      1 C1         -0.0184    1.5028    0.0103 C.3       1 <0>        -0.1336
      2 C2          0.0021   -0.0041    0.0020 C.ar      1 <0>        -0.0484
      3 C3          0.0057   -0.6859   -1.1973 C.ar      1 <0>        -0.0817
      4 C4          0.0246   -2.0812   -1.2034 C.ar      1 <0>        -0.0229
      5 C5          0.0398   -2.7786    0.0056 C.ar      1 <0>        -0.0658
      6 C6          0.0360   -2.0858    1.1982 C.ar      1 <0>        -0.0862
      7 C7          0.0229   -0.7012    1.1977 C.ar      1 <0>        -0.0681
      8 Br1         0.0262    0.2412    2.8372 Br        1 <0>        -0.0205
      9 C8          0.0281   -2.8179   -2.4853 C.2       1 <0>         0.1796
     10 N1          0.0393   -4.1253   -2.7043 N.2       1 <0>        -0.5050
     11 C9          0.0407   -4.6120   -3.9231 C.2       1 <0>        -0.0140
     12 C10         0.0305   -3.7687   -4.9894 C.2       1 <0>        -0.1807
     13 S1          0.0104   -2.1855   -4.1577 S.3       1 <0>         0.1030
     14 C11         0.0541   -6.1032   -4.1403 C.3       1 <0>         0.0795
     15 N2          1.4385   -6.5923   -4.0944 N.4       1 <0>        -0.6350
     16 H1          1.0042    1.8801    0.0026 H         1 <0>         0.0869
     17 H2         -0.5455    1.8639   -0.8728 H         1 <0>         0.0788
     18 H3         -0.5286    1.8543    0.9071 H         1 <0>         0.0849
     19 H4         -0.0065   -0.1409   -2.1297 H         1 <0>         0.1374
     20 H5          0.0541   -3.8585    0.0072 H         1 <0>         0.1436
     21 H6          0.0474   -2.6243    2.1343 H         1 <0>         0.1470
     22 H7          0.0299   -3.9927   -6.0459 H         1 <0>         0.2118
     23 H8         -0.5291   -6.5895   -3.3584 H         1 <0>         0.1477
     24 H9         -0.3802   -6.3325   -5.1134 H         1 <0>         0.1488
     25 H10         1.8406   -6.3800   -3.1936 H         1 <0>         0.4384
     26 H11         1.4475   -7.5907   -4.2398 H         1 <0>         0.4407
     27 H12         1.9784   -6.1421   -4.8182 H         1 <0>         0.4338
@<TRIPOS>BOND
     1    1    2 1
     2    1   16 1
     3    1   17 1
     4    1   18 1
     5    2    7 ar
     6    2    3 ar
     7    3    4 ar
     8    3   19 1
     9    4    5 ar
    10    4    9 1
    11    5    6 ar
    12    5   20 1
    13    6    7 ar
    14    6   21 1
    15    7    8 1
    16    9   13 1
    17    9   10 2
    18   10   11 1
    19   11   12 2
    20   11   14 1
    21   12   13 1
    22   12   22 1
    23   14   15 1
    24   14   23 1
    25   14   24 1
    26   15   25 1
    27   15   26 1
    28   15   27 1
@<TRIPOS>MOLECULE
ZINC88870644
   34    36     0     0     0
SMALL
USER_CHARGES

@<TRIPOS>ATOM
      1 C1         -0.0167    1.3786    0.0096 C.ar      1 <0>        -0.1069
      2 C2          1.1675    2.0879    0.0021 C.ar      1 <0>        -0.0822
      3 C3          2.3841    1.4084   -0.0131 C.ar      1 <0>        -0.0215
      4 C4          2.3983    0.0148   -0.0207 C.ar      1 <0>        -0.0959
      5 C5          1.2077   -0.6850   -0.0131 C.ar      1 <0>        -0.0333
      6 C6          0.0021   -0.0041    0.0020 C.ar      1 <0>        -0.0985
      7 Cl1         1.2226   -2.4209   -0.0230 Cl        1 <0>        -0.0575
      8 C7          3.6597    2.1659   -0.0217 C.2       1 <0>         0.0981
      9 C8          4.8586    1.5014   -0.0418 C.2       1 <0>        -0.1698
     10 S1          5.9999    2.8781   -0.0433 S.3       1 <0>         0.0570
     11 C9          4.7764    4.1810   -0.0173 C.2       1 <0>         0.1151
     12 N1          3.6506    3.4854   -0.0155 N.2       1 <0>        -0.4707
     13 C10         4.9706    5.6469   -0.0067 C.ar      1 <0>         0.0370
     14 C11         3.8665    6.4999    0.0202 C.ar      1 <0>        -0.0739
     15 C12         4.0545    7.8666    0.0299 C.ar      1 <0>        -0.0876
     16 C13         5.3343    8.3920    0.0129 C.ar      1 <0>        -0.1627
     17 C14         6.4332    7.5518   -0.0138 C.ar      1 <0>        -0.0852
     18 C15         6.2589    6.1832   -0.0179 C.ar      1 <0>        -0.0949
     19 C16         5.5322    9.8859    0.0232 C.3       1 <0>         0.0469
     20 N2          5.6200   10.3587    1.4112 N.4       1 <0>        -0.6373
     21 H1         -0.9598    1.9047    0.0260 H         1 <0>         0.1383
     22 H2          1.1512    3.1677    0.0077 H         1 <0>         0.1368
     23 H3          3.3383   -0.5167   -0.0328 H         1 <0>         0.1359
     24 H4         -0.9269   -0.5548    0.0079 H         1 <0>         0.1391
     25 H5          5.0585    0.4401   -0.0533 H         1 <0>         0.2089
     26 H6          2.8670    6.0910    0.0331 H         1 <0>         0.1483
     27 H7          3.2008    8.5279    0.0504 H         1 <0>         0.1409
     28 H8          7.4296    7.9681   -0.0269 H         1 <0>         0.1413
     29 H9          7.1175    5.5283   -0.0343 H         1 <0>         0.1403
     30 H10         6.4534   10.1340   -0.5042 H         1 <0>         0.1423
     31 H11         4.6891   10.3675   -0.4721 H         1 <0>         0.1423
     32 H12         4.7674   10.1291    1.8993 H         1 <0>         0.4353
     33 H13         6.4005    9.9129    1.8696 H         1 <0>         0.4351
     34 H14         5.7526   11.3590    1.4180 H         1 <0>         0.4389
@<TRIPOS>BOND
     1    1    6 ar
     2    1    2 ar
     3    1   21 1
     4    2    3 ar
     5    2   22 1
     6    3    4 ar
     7    3    8 1
     8    4    5 ar
     9    4   23 1
    10    5    6 ar
    11    5    7 1
    12    6   24 1
    13    8   12 1
    14    8    9 2
    15    9   10 1
    16    9   25 1
    17   10   11 1
    18   11   12 2
    19   11   13 1
    20   13   18 ar
    21   13   14 ar
    22   14   15 ar
    23   14   26 1
    24   15   16 ar
    25   15   27 1
    26   16   17 ar
    27   16   19 1
    28   17   18 ar
    29   17   28 1
    30   18   29 1
    31   19   20 1
    32   19   30 1
    33   19   31 1
    34   20   32 1
    35   20   33 1
    36   20   34 1
@<TRIPOS>MOLECULE
ZINC40999579
   27    28     0     0     0
SMALL
USER_CHARGES

@<TRIPOS>ATOM
      1 C1         -0.0178    1.4648    0.0101 C.3       1 <0>        -0.0465
      2 N1          0.0021   -0.0041    0.0020 N.4       1 <0>        -0.5087
      3 C2         -1.3761   -0.5125    0.0124 C.3       1 <0>         0.0775
      4 C3         -1.3556   -2.0194    0.0042 C.2       1 <0>        -0.0131
      5 C4         -1.4428   -2.7075    1.1727 C.2       1 <0>        -0.1879
      6 S1         -1.3712   -4.3903    0.5711 S.3       1 <0>         0.1346
      7 C5         -1.2332   -3.9946   -1.1671 C.2       1 <0>         0.1612
      8 N2         -1.2590   -2.6694   -1.1325 N.2       1 <0>        -0.4925
      9 C6         -1.1256   -4.9006   -2.3296 C.ar      1 <0>        -0.1090
     10 C7         -1.0198   -4.3768   -3.6209 C.ar      1 <0>         0.1800
     11 C8         -0.9196   -5.2307   -4.7031 C.ar      1 <0>        -0.1628
     12 C9         -0.9242   -6.6004   -4.5106 C.ar      1 <0>        -0.0268
     13 C10        -1.0290   -7.1265   -3.2357 C.ar      1 <0>        -0.1565
     14 C11        -1.1233   -6.2856   -2.1428 C.ar      1 <0>         0.1574
     15 F1         -1.2191   -6.8012   -0.8978 F         1 <0>        -0.1157
     16 F2         -1.0160   -3.0392   -3.8109 F         1 <0>        -0.1100
     17 H1          1.0047    1.8421    0.0024 H         1 <0>         0.1277
     18 H2         -0.5450    1.8259   -0.8730 H         1 <0>         0.1253
     19 H3         -0.5280    1.8163    0.9069 H         1 <0>         0.1251
     20 H4          0.4744   -0.3295   -0.8281 H         1 <0>         0.4335
     21 H5         -1.8863   -0.1610    0.9092 H         1 <0>         0.1463
     22 H6         -1.9033   -0.1515   -0.8706 H         1 <0>         0.1454
     23 H7         -1.5305   -2.3401    2.1845 H         1 <0>         0.2117
     24 H8         -0.8378   -4.8274   -5.7016 H         1 <0>         0.1575
     25 H9         -0.8459   -7.2625   -5.3602 H         1 <0>         0.1588
     26 H10        -1.0326   -8.1971   -3.0935 H         1 <0>         0.1593
     27 H11         0.4901   -0.3383    0.8195 H         1 <0>         0.4282
@<TRIPOS>BOND
     1    1    2 1
     2    1   17 1
     3    1   18 1
     4    1   19 1
     5    2    3 1
     6    2   20 1
     7    2   27 1
     8    3    4 1
     9    3   21 1
    10    3   22 1
    11    4    8 1
    12    4    5 2
    13    5    6 1
    14    5   23 1
    15    6    7 1
    16    7    8 2
    17    7    9 1
    18    9   14 ar
    19    9   10 ar
    20   10   11 ar
    21   10   16 1
    22   11   12 ar
    23   11   24 1
    24   12   13 ar
    25   12   25 1
    26   13   14 ar
    27   13   26 1
    28   14   15 1
@<TRIPOS>MOLECULE
ZINC80803245
   30    31     0     0     0
SMALL
USER_CHARGES

@<TRIPOS>ATOM
      1 C1         -0.0187    1.5258    0.0104 C.3       1 <0>        -0.1798
      2 C2          0.0021   -0.0041    0.0020 C.3       1 <0>         0.1154
      3 H1          0.5123   -0.3556   -0.8948 H         1 <0>         0.1502
      4 C3         -1.4117   -0.5257    0.0127 C.2       1 <0>        -0.0041
      5 C4         -2.0954   -0.6636   -1.1542 C.2       1 <0>        -0.1958
      6 S1         -3.6551   -1.2968   -0.5500 S.3       1 <0>         0.1524
      7 C5         -3.2274   -1.3086    1.1861 C.2       1 <0>         0.1550
      8 N1         -1.9831   -0.8526    1.1481 N.2       1 <0>        -0.5224
      9 C6         -4.0406   -1.7207    2.3501 C.ar      1 <0>        -0.0096
     10 C7         -3.5094   -1.6441    3.6385 C.ar      1 <0>        -0.0559
     11 C8         -4.2728   -2.0295    4.7208 C.ar      1 <0>        -0.0975
     12 C9         -5.5634   -2.4917    4.5326 C.ar      1 <0>        -0.0689
     13 C10        -6.0975   -2.5712    3.2583 C.ar      1 <0>        -0.0276
     14 C11        -5.3451   -2.1827    2.1656 C.ar      1 <0>        -0.0191
     15 Cl1        -6.0180   -2.2752    0.5680 Cl        1 <0>        -0.0065
     16 Cl2        -7.7173   -3.1534    3.0322 Cl        1 <0>        -0.0216
     17 N2          0.7126   -0.4907    1.1921 N.4       1 <0>        -0.5007
     18 C12         2.1220   -0.0825    1.1220 C.3       1 <0>        -0.0522
     19 H2          1.0039    1.9031    0.0027 H         1 <0>         0.0894
     20 H3         -0.5459    1.8868   -0.8726 H         1 <0>         0.1062
     21 H4         -0.5289    1.8773    0.9072 H         1 <0>         0.0837
     22 H5         -1.7834   -0.4496   -2.1657 H         1 <0>         0.2072
     23 H6         -2.5022   -1.2840    3.7878 H         1 <0>         0.1479
     24 H7         -3.8619   -1.9707    5.7179 H         1 <0>         0.1540
     25 H8         -6.1564   -2.7920    5.3838 H         1 <0>         0.1567
     26 H9          0.2896   -0.0986    2.0201 H         1 <0>         0.4340
     27 H10         2.6492   -0.4436    2.0051 H         1 <0>         0.1284
     28 H11         2.5788   -0.5061    0.2276 H         1 <0>         0.1242
     29 H12         2.1837    1.0050    1.0814 H         1 <0>         0.1255
     30 H13         0.6554   -1.4974    1.2298 H         1 <0>         0.4314
@<TRIPOS>BOND
     1    1    2 1
     2    1   19 1
     3    1   20 1
     4    1   21 1
     5    2    3 1
     6    2    4 1
     7    2   17 1
     8    4    8 1
     9    4    5 2
    10    5    6 1
    11    5   22 1
    12    6    7 1
    13    7    8 2
    14    7    9 1
    15    9   14 ar
    16    9   10 ar
    17   10   11 ar
    18   10   23 1
    19   11   12 ar
    20   11   24 1
    21   12   13 ar
    22   12   25 1
    23   13   14 ar
    24   13   16 1
    25   14   15 1
    26   17   18 1
    27   17   26 1
    28   17   30 1
    29   18   27 1
    30   18   28 1
    31   18   29 1
@<TRIPOS>MOLECULE
ZINC62606530
   31    33     0     0     0
SMALL
USER_CHARGES

@<TRIPOS>ATOM
      1 C1         -0.0167    1.3792    0.0096 C.ar      1 <0>        -0.1092
      2 C2          1.1661    2.0896    0.0021 C.ar      1 <0>        -0.0552
      3 C3          2.3851    1.4109   -0.0132 C.ar      1 <0>        -0.0612
      4 C4          2.3996    0.0135   -0.0208 C.ar      1 <0>         0.1598
      5 C5          1.2064   -0.6861   -0.0132 C.ar      1 <0>        -0.0803
      6 C6          0.0021   -0.0041    0.0020 C.ar      1 <0>        -0.0493
      7 Cl1         1.2194   -2.4221   -0.0227 Cl        1 <0>        -0.0263
      8 F1          3.5752   -0.6520   -0.0361 F         1 <0>        -0.1057
      9 C7          3.6557    2.1666   -0.0217 C.2       1 <0>         0.1694
     10 N1          4.9024    1.7162   -0.0416 N.2       1 <0>        -0.4928
     11 C8          5.9243    2.5399   -0.0468 C.2       1 <0>        -0.0102
     12 C9          5.7124    3.8825   -0.0317 C.2       1 <0>        -0.1764
     13 S1          3.9247    3.9342   -0.0160 S.3       1 <0>         0.1119
     14 C10         7.3304    1.9980   -0.0691 C.3       1 <0>         0.0829
     15 N2          7.7606    1.6964    1.3027 N.4       1 <0>        -0.4785
     16 C11         9.1312    1.1682    1.2811 C.3       1 <0>        -0.0841
     17 C12         9.3418   -0.2696    1.7598 C.3       1 <0>        -0.1534
     18 C13         9.8069    0.9015    2.6276 C.3       1 <0>        -0.1537
     19 H1         -0.9601    1.9047    0.0260 H         1 <0>         0.1566
     20 H2          1.1485    3.1694    0.0078 H         1 <0>         0.1457
     21 H3         -0.9272   -0.5543    0.0083 H         1 <0>         0.1572
     22 H4          6.4257    4.6933   -0.0332 H         1 <0>         0.2132
     23 H5          7.3594    1.0875   -0.6675 H         1 <0>         0.1463
     24 H6          7.9990    2.7405   -0.5046 H         1 <0>         0.1469
     25 H7          7.7338    2.5393    1.8567 H         1 <0>         0.4263
     26 H8          9.7594    1.5243    0.4645 H         1 <0>         0.1795
     27 H9          8.4634   -0.8236    2.0908 H         1 <0>         0.1214
     28 H10        10.1087   -0.8599    1.2581 H         1 <0>         0.1347
     29 H11        10.8797    1.0817    2.6969 H         1 <0>         0.1350
     30 H12         9.2344    1.1179    3.5296 H         1 <0>         0.1202
     31 H13         7.1417    1.0091    1.7059 H         1 <0>         0.4292
@<TRIPOS>BOND
     1    1    6 ar
     2    1    2 ar
     3    1   19 1
     4    2    3 ar
     5    2   20 1
     6    3    4 ar
     7    3    9 1
     8    4    5 ar
     9    4    8 1
    10    5    6 ar
    11    5    7 1
    12    6   21 1
    13    9   13 1
    14    9   10 2
    15   10   11 1
    16   11   12 2
    17   11   14 1
    18   12   13 1
    19   12   22 1
    20   14   15 1
    21   14   23 1
    22   14   24 1
    23   15   16 1
    24   15   25 1
    25   15   31 1
    26   16   18 1
    27   16   17 1
    28   16   26 1
    29   17   18 1
    30   17   27 1
    31   17   28 1
    32   18   29 1
    33   18   30 1
@<TRIPOS>MOLECULE
ZINC00120701
   24    25     0     0     0
SMALL
USER_CHARGES
2-(2,3-dichlorophenyl)thiazole-4-carbohydrazide
@<TRIPOS>ATOM
      1 C1          1.1681    2.0940    0.0022 C.ar      1 <0>        -0.0971
      2 C2          2.3778    1.4302   -0.0131 C.ar      1 <0>        -0.0591
      3 C3          2.4056    0.0354   -0.0208 C.ar      1 <0>         0.0123
      4 C4          1.2070   -0.6808   -0.0132 C.ar      1 <0>        -0.0239
      5 C5          0.0021   -0.0041    0.0020 C.ar      1 <0>        -0.0271
      6 C6         -0.0167    1.3802    0.0096 C.ar      1 <0>        -0.0815
      7 Cl1        -1.4902   -0.8911    0.0110 Cl        1 <0>        -0.0341
      8 Cl2         1.2303   -2.4167   -0.0221 Cl        1 <0>        -0.0128
      9 C7          3.6990   -0.6815   -0.0366 C.2       1 <0>         0.1064
     10 N1          4.9244   -0.1898   -0.0510 N.2       1 <0>        -0.4618
     11 C8          5.9652   -1.0092   -0.0605 C.2       1 <0>        -0.0049
     12 C9          5.7484   -2.3649   -0.0656 C.2       1 <0>        -0.1712
     13 S1          4.0134   -2.4393   -0.0490 S.3       1 <0>         0.1653
     14 C10         7.3371   -0.4729   -0.0707 C.2       1 <0>         0.5918
     15 O1          8.2870   -1.2325   -0.0836 O.2       1 <0>        -0.5227
     16 N2          7.5398    0.8595   -0.0656 N.am      1 <0>        -0.5611
     17 N3          8.8120    1.3569   -0.0750 N.3       1 <0>        -0.6018
     18 H1          1.1464    3.1737    0.0082 H         1 <0>         0.1507
     19 H2          3.3017    1.9896   -0.0189 H         1 <0>         0.1516
     20 H3         -0.9605    1.9051    0.0170 H         1 <0>         0.1514
     21 H4          6.4666   -3.1714   -0.0772 H         1 <0>         0.2106
     22 H5          6.7823    1.4653   -0.0552 H         1 <0>         0.4102
     23 H6          9.3329    1.0027   -0.8631 H         1 <0>         0.3483
     24 H7          8.8058    2.3659   -0.0696 H         1 <0>         0.3604
@<TRIPOS>BOND
     1    1    6 ar
     2    1    2 ar
     3    1   18 1
     4    2    3 ar
     5    2   19 1
     6    3    4 ar
     7    3    9 1
     8    4    5 ar
     9    4    8 1
    10    5    6 ar
    11    5    7 1
    12    6   20 1
    13    9   13 1
    14    9   10 2
    15   10   11 1
    16   11   12 2
    17   11   14 1
    18   12   13 1
    19   12   21 1
    20   14   15 2
    21   14   16 am
    22   16   17 1
    23   16   22 1
    24   17   23 1
    25   17   24 1
@<TRIPOS>MOLECULE
ZINC80812823
   33    34     0     0     0
SMALL
USER_CHARGES

@<TRIPOS>ATOM
      1 C1         -0.0187    1.5258    0.0104 C.3       1 <0>        -0.1882
      2 C2          0.0021   -0.0041    0.0020 C.3       1 <0>        -0.0152
      3 N1          0.7126   -0.4907    1.1921 N.4       1 <0>        -0.5010
      4 C3          0.7325   -1.9595    1.1840 C.3       1 <0>         0.1166
      5 H1          1.1628   -2.3119    0.2466 H         1 <0>         0.1512
      6 C4         -0.6962   -2.4897    1.3206 C.3       1 <0>        -0.1801
      7 C5          1.5652   -2.4570    2.3374 C.2       1 <0>         0.0014
      8 C6          2.1572   -3.6790    2.2725 C.2       1 <0>        -0.1719
      9 S1          2.9808   -3.7314    3.8592 S.3       1 <0>         0.1147
     10 C7          2.4481   -2.1243    4.4340 C.2       1 <0>         0.1734
     11 N2          1.7246   -1.7089    3.4038 N.2       1 <0>        -0.5270
     12 C8          2.7404   -1.4405    5.7120 C.ar      1 <0>        -0.0202
     13 C9          2.2123   -0.1736    5.9654 C.ar      1 <0>        -0.0521
     14 C10         2.4875    0.4598    7.1593 C.ar      1 <0>        -0.0971
     15 C11         3.2863   -0.1585    8.1064 C.ar      1 <0>        -0.0062
     16 C12         3.8141   -1.4159    7.8609 C.ar      1 <0>        -0.0307
     17 C13         3.5404   -2.0617    6.6716 C.ar      1 <0>        -0.0671
     18 Cl1         4.8151   -2.1837    9.0535 Cl        1 <0>        -0.0212
     19 Cl2         3.6284    0.6450    9.6067 Cl        1 <0>        -0.0211
     20 H2          1.0039    1.9031    0.0027 H         1 <0>         0.0805
     21 H3         -0.5459    1.8868   -0.8726 H         1 <0>         0.1077
     22 H4         -0.5289    1.8773    0.9072 H         1 <0>         0.0810
     23 H5         -1.0205   -0.3814    0.0098 H         1 <0>         0.1330
     24 H6          0.5123   -0.3556   -0.8948 H         1 <0>         0.1315
     25 H7          1.6592   -0.1414    1.1850 H         1 <0>         0.4293
     26 H8         -1.2985   -2.1299    0.4864 H         1 <0>         0.0899
     27 H9         -0.6814   -3.5796    1.3146 H         1 <0>         0.1069
     28 H10        -1.1265   -2.1373    2.2580 H         1 <0>         0.0844
     29 H11         2.1359   -4.4146    1.4820 H         1 <0>         0.2121
     30 H12         1.5893    0.3102    5.2275 H         1 <0>         0.1478
     31 H13         2.0795    1.4402    7.3557 H         1 <0>         0.1568
     32 H14         3.9483   -3.0437    6.4826 H         1 <0>         0.1487
     33 H15         0.2403   -0.1653    2.0223 H         1 <0>         0.4324
@<TRIPOS>BOND
     1    1    2 1
     2    1   20 1
     3    1   21 1
     4    1   22 1
     5    2    3 1
     6    2   23 1
     7    2   24 1
     8    3    4 1
     9    3   25 1
    10    3   33 1
    11    4    5 1
    12    4    6 1
    13    4    7 1
    14    6   26 1
    15    6   27 1
    16    6   28 1
    17    7   11 1
    18    7    8 2
    19    8    9 1
    20    8   29 1
    21    9   10 1
    22   10   11 2
    23   10   12 1
    24   12   17 ar
    25   12   13 ar
    26   13   14 ar
    27   13   30 1
    28   14   15 ar
    29   14   31 1
    30   15   16 ar
    31   15   19 1
    32   16   17 ar
    33   16   18 1
    34   17   32 1
@<TRIPOS>MOLECULE
ZINC80812817
   33    34     0     0     0
SMALL
USER_CHARGES

@<TRIPOS>ATOM
      1 C1         -0.0187    1.5258    0.0104 C.3       1 <0>        -0.1882
      2 C2          0.0021   -0.0041    0.0020 C.3       1 <0>        -0.0152
      3 N1          0.7126   -0.4907    1.1921 N.4       1 <0>        -0.5010
      4 C3          0.7325   -1.9595    1.1840 C.3       1 <0>         0.1166
      5 H1         -0.2871   -2.3363    1.1022 H         1 <0>         0.1513
      6 C4          1.5554   -2.4519   -0.0082 C.3       1 <0>        -0.1801
      7 C5          1.3520   -2.4606    2.4632 C.2       1 <0>         0.0013
      8 C6          1.0475   -3.7018    2.9266 C.2       1 <0>        -0.1717
      9 S1          2.0368   -3.7498    4.4158 S.3       1 <0>         0.1147
     10 C7          2.7458   -2.1159    4.2589 C.2       1 <0>         0.1732
     11 N2          2.1904   -1.7014    3.1288 N.2       1 <0>        -0.5269
     12 C8          3.6991   -1.4174    5.1475 C.ar      1 <0>        -0.0202
     13 C9          4.1261   -0.1249    4.8389 C.ar      1 <0>        -0.0522
     14 C10         5.0151    0.5225    5.6713 C.ar      1 <0>        -0.0971
     15 C11         5.4845   -0.1070    6.8118 C.ar      1 <0>        -0.0062
     16 C12         5.0648   -1.3902    7.1236 C.ar      1 <0>        -0.0307
     17 C13         4.1707   -2.0456    6.3006 C.ar      1 <0>        -0.0671
     18 Cl1         5.6587   -2.1723    8.5552 Cl        1 <0>        -0.0212
     19 Cl2         6.6032    0.7143    7.8546 Cl        1 <0>        -0.0210
     20 H2          1.0039    1.9031    0.0027 H         1 <0>         0.0810
     21 H3         -0.5459    1.8868   -0.8726 H         1 <0>         0.1077
     22 H4         -0.5289    1.8773    0.9072 H         1 <0>         0.0805
     23 H5         -1.0205   -0.3814    0.0098 H         1 <0>         0.1315
     24 H6          0.5123   -0.3556   -0.8948 H         1 <0>         0.1330
     25 H7          1.6592   -0.1414    1.1850 H         1 <0>         0.4323
     26 H8          1.5702   -3.5418   -0.0141 H         1 <0>         0.1068
     27 H9          1.1073   -2.0895   -0.9334 H         1 <0>         0.0899
     28 H10         2.5749   -2.0751    0.0737 H         1 <0>         0.0843
     29 H11         0.3902   -4.4511    2.5109 H         1 <0>         0.2121
     30 H12         3.7613    0.3674    3.9495 H         1 <0>         0.1478
     31 H13         5.3462    1.5225    5.4328 H         1 <0>         0.1568
     32 H14         3.8405   -3.0441    6.5465 H         1 <0>         0.1487
     33 H15         0.2403   -0.1653    2.0223 H         1 <0>         0.4293
@<TRIPOS>BOND
     1    1    2 1
     2    1   20 1
     3    1   21 1
     4    1   22 1
     5    2    3 1
     6    2   23 1
     7    2   24 1
     8    3    4 1
     9    3   25 1
    10    3   33 1
    11    4    5 1
    12    4    6 1
    13    4    7 1
    14    6   26 1
    15    6   27 1
    16    6   28 1
    17    7   11 1
    18    7    8 2
    19    8    9 1
    20    8   29 1
    21    9   10 1
    22   10   11 2
    23   10   12 1
    24   12   17 ar
    25   12   13 ar
    26   13   14 ar
    27   13   30 1
    28   14   15 ar
    29   14   31 1
    30   15   16 ar
    31   15   19 1
    32   16   17 ar
    33   16   18 1
    34   17   32 1
@<TRIPOS>MOLECULE
ZINC80803242
   30    31     0     0     0
SMALL
USER_CHARGES

@<TRIPOS>ATOM
      1 C1         -0.0187    1.5258    0.0104 C.3       1 <0>        -0.1799
      2 C2          0.0021   -0.0041    0.0020 C.3       1 <0>         0.1154
      3 H1          0.5123   -0.3556   -0.8948 H         1 <0>         0.1503
      4 C3          0.7309   -0.5033    1.2229 C.2       1 <0>        -0.0042
      5 C4          2.0861   -0.6103    1.2105 C.2       1 <0>        -0.1957
      6 S1          2.3833   -1.2290    2.8620 S.3       1 <0>         0.1526
      7 C5          0.6749   -1.2774    3.3871 C.2       1 <0>         0.1548
      8 N1          0.0589   -0.8303    2.3017 N.2       1 <0>        -0.5223
      9 C6          0.1035   -1.6979    4.6843 C.ar      1 <0>        -0.0095
     10 C7         -1.2771   -1.6636    4.8860 C.ar      1 <0>        -0.0560
     11 C8         -1.8048   -2.0575    6.0982 C.ar      1 <0>        -0.0974
     12 C9         -0.9692   -2.4865    7.1142 C.ar      1 <0>        -0.0690
     13 C10         0.4010   -2.5232    6.9225 C.ar      1 <0>        -0.0275
     14 C11         0.9422   -2.1365    5.7106 C.ar      1 <0>        -0.0192
     15 Cl1         2.6603   -2.1900    5.4679 Cl        1 <0>        -0.0065
     16 Cl2         1.4412   -3.0618    8.2037 Cl        1 <0>        -0.0215
     17 N2         -1.3761   -0.5125    0.0124 N.4       1 <0>        -0.5007
     18 C12        -2.0500   -0.1262   -1.2343 C.3       1 <0>        -0.0523
     19 H2          1.0039    1.9031    0.0027 H         1 <0>         0.1062
     20 H3         -0.5459    1.8868   -0.8726 H         1 <0>         0.0894
     21 H4         -0.5289    1.8773    0.9072 H         1 <0>         0.0837
     22 H5          2.7885   -0.3848    0.4217 H         1 <0>         0.2073
     23 H6         -1.9313   -1.3288    4.0946 H         1 <0>         0.1479
     24 H7         -2.8731   -2.0307    6.2547 H         1 <0>         0.1540
     25 H8         -1.3880   -2.7937    8.0611 H         1 <0>         0.1567
     26 H9         -1.3629   -1.5185    0.0898 H         1 <0>         0.4314
     27 H10        -3.0726   -0.5034   -1.2266 H         1 <0>         0.1284
     28 H11        -2.0643    0.9605   -1.3179 H         1 <0>         0.1255
     29 H12        -1.5132   -0.5489   -2.0836 H         1 <0>         0.1242
     30 H13        -1.8730   -0.1212    0.7986 H         1 <0>         0.4340
@<TRIPOS>BOND
     1    1    2 1
     2    1   19 1
     3    1   20 1
     4    1   21 1
     5    2    3 1
     6    2    4 1
     7    2   17 1
     8    4    8 1
     9    4    5 2
    10    5    6 1
    11    5   22 1
    12    6    7 1
    13    7    8 2
    14    7    9 1
    15    9   14 ar
    16    9   10 ar
    17   10   11 ar
    18   10   23 1
    19   11   12 ar
    20   11   24 1
    21   12   13 ar
    22   12   25 1
    23   13   14 ar
    24   13   16 1
    25   14   15 1
    26   17   18 1
    27   17   26 1
    28   17   30 1
    29   18   27 1
    30   18   28 1
    31   18   29 1
@<TRIPOS>MOLECULE
ZINC36893375
   21    22     0     0     0
SMALL
USER_CHARGES

@<TRIPOS>ATOM
      1 C1         -0.0167    1.3790    0.0096 C.ar      1 <0>        -0.0998
      2 C2          1.1665    2.0890    0.0021 C.ar      1 <0>        -0.0786
      3 C3          2.3851    1.4095   -0.0131 C.ar      1 <0>         0.0025
      4 C4          2.3990    0.0130   -0.0207 C.ar      1 <0>         0.0027
      5 C5          1.2069   -0.6860   -0.0131 C.ar      1 <0>        -0.0355
      6 C6          0.0021   -0.0041    0.0020 C.ar      1 <0>        -0.0799
      7 Cl1         1.2201   -2.4219   -0.0224 Cl        1 <0>        -0.0368
      8 Cl2         3.9095   -0.8424   -0.0402 Cl        1 <0>        -0.0066
      9 C7          3.6562    2.1646   -0.0217 C.2       1 <0>         0.1431
     10 N1          4.9026    1.7136   -0.0415 N.2       1 <0>        -0.4604
     11 C8          5.9249    2.5366   -0.0467 C.2       1 <0>         0.0381
     12 C9          5.7137    3.8794   -0.0317 C.2       1 <0>        -0.1726
     13 S1          3.9261    3.9321   -0.0160 S.3       1 <0>         0.0436
     14 C10         7.3306    1.9939   -0.0689 C.3       1 <0>         0.0359
     15 Cl3         7.8705    1.7933   -1.7774 Cl        1 <0>        -0.1648
     16 H1         -0.9600    1.9047    0.0260 H         1 <0>         0.1497
     17 H2          1.1494    3.1688    0.0077 H         1 <0>         0.1425
     18 H3         -0.9272   -0.5544    0.0079 H         1 <0>         0.1500
     19 H4          6.4276    4.6899   -0.0327 H         1 <0>         0.2053
     20 H5          7.9964    2.6884    0.4434 H         1 <0>         0.1117
     21 H6          7.3552    1.0280    0.4357 H         1 <0>         0.1099
@<TRIPOS>BOND
     1    1    6 ar
     2    1    2 ar
     3    1   16 1
     4    2    3 ar
     5    2   17 1
     6    3    4 ar
     7    3    9 1
     8    4    5 ar
     9    4    8 1
    10    5    6 ar
    11    5    7 1
    12    6   18 1
    13    9   13 1
    14    9   10 2
    15   10   11 1
    16   11   12 2
    17   11   14 1
    18   12   13 1
    19   12   19 1
    20   14   15 1
    21   14   20 1
    22   14   21 1
@<TRIPOS>MOLECULE
ZINC62793569
   22    23     0     0     0
SMALL
USER_CHARGES

@<TRIPOS>ATOM
      1 C1         -0.0168    1.3912    0.0097 C.ar      1 <0>        -0.0574
      2 C2          1.1695    2.0952    0.0021 C.ar      1 <0>        -0.1373
      3 C3          2.3789    1.4197   -0.0135 C.ar      1 <0>         0.1320
      4 C4          2.4040    0.0328   -0.0216 C.ar      1 <0>        -0.0770
      5 C5          1.2228   -0.6807   -0.0137 C.ar      1 <0>        -0.0338
      6 C6          0.0021   -0.0041    0.0020 C.ar      1 <0>        -0.0164
      7 C7         -1.2667   -0.7631    0.0105 C.2       1 <0>         0.1540
      8 N1         -1.4627   -2.0742    0.0109 N.2       1 <0>        -0.4884
      9 C8         -2.6730   -2.5821    0.0199 C.2       1 <0>         0.0538
     10 C9         -3.7536   -1.7576    0.0291 C.2       1 <0>        -0.1806
     11 S1         -2.9498   -0.1600    0.0311 S.3       1 <0>         0.0425
     12 C10        -2.8642   -4.0770    0.0196 C.3       1 <0>         0.0494
     13 C11        -2.1455   -4.6633   -1.1234 C.1       1 <0>         0.2093
     14 N2         -1.5908   -5.1158   -2.0055 N.1       1 <0>        -0.4226
     15 Cl1         3.9235   -0.8065   -0.0424 Cl        1 <0>        -0.0342
     16 F1          3.5377    2.1140   -0.0213 F         1 <0>        -0.1179
     17 H1         -0.9589    1.9191    0.0260 H         1 <0>         0.1459
     18 H2          1.1554    3.1751    0.0081 H         1 <0>         0.1573
     19 H3          1.2428   -1.7605   -0.0204 H         1 <0>         0.1568
     20 H4         -4.8060   -2.0001    0.0371 H         1 <0>         0.2089
     21 H5         -2.4725   -4.4936    0.9475 H         1 <0>         0.1272
     22 H6         -3.9264   -4.3074   -0.0622 H         1 <0>         0.1285
@<TRIPOS>BOND
     1    1    6 ar
     2    1    2 ar
     3    1   17 1
     4    2    3 ar
     5    2   18 1
     6    3    4 ar
     7    3   16 1
     8    4    5 ar
     9    4   15 1
    10    5    6 ar
    11    5   19 1
    12    6    7 1
    13    7   11 1
    14    7    8 2
    15    8    9 1
    16    9   10 2
    17    9   12 1
    18   10   11 1
    19   10   20 1
    20   12   13 1
    21   12   21 1
    22   12   22 1
    23   13   14 3
@<TRIPOS>MOLECULE
ZINC00166364
   28    30     0     0     0
SMALL
USER_CHARGES
2-(3-chloro-4-fluoro-phenyl)-4-(4-chlorophenyl)-thiazole
@<TRIPOS>ATOM
      1 C1          4.5676    1.4685   -0.0404 C.ar      1 <0>        -0.0920
      2 C2          5.9177    1.1832   -0.0495 C.ar      1 <0>        -0.1094
      3 C3          6.3496   -0.1320   -0.0606 C.ar      1 <0>        -0.0282
      4 C4          5.4305   -1.1673   -0.0569 C.ar      1 <0>        -0.1113
      5 C5          4.0783   -0.8926   -0.0421 C.ar      1 <0>        -0.0728
      6 C6          3.6384    0.4298   -0.0309 C.ar      1 <0>        -0.0240
      7 C7          2.1858    0.7308   -0.0149 C.2       1 <0>         0.0996
      8 C8          1.7489    2.0298   -0.0037 C.2       1 <0>        -0.1863
      9 S1         -0.0222    1.7833    0.0118 S.3       1 <0>         0.0434
     10 C9          0.0021   -0.0041    0.0020 C.2       1 <0>         0.1538
     11 N1          1.3025   -0.2499   -0.0117 N.2       1 <0>        -0.4847
     12 C10        -1.1299   -0.9552    0.0077 C.ar      1 <0>        -0.0152
     13 C11        -2.4427   -0.4812    0.0233 C.ar      1 <0>        -0.0577
     14 C12        -3.4954   -1.3721    0.0286 C.ar      1 <0>        -0.1368
     15 C13        -3.2522   -2.7363    0.0185 C.ar      1 <0>         0.1316
     16 C14        -1.9501   -3.2131    0.0035 C.ar      1 <0>        -0.0768
     17 C15        -0.8895   -2.3296   -0.0082 C.ar      1 <0>        -0.0344
     18 Cl1        -1.6535   -4.9236   -0.0091 Cl        1 <0>        -0.0343
     19 F1         -4.2871   -3.6047    0.0238 F         1 <0>        -0.1180
     20 Cl2         8.0494   -0.4842   -0.0798 Cl        1 <0>        -0.0655
     21 H1          4.2316    2.4949   -0.0363 H         1 <0>         0.1347
     22 H2          6.6386    1.9874   -0.0520 H         1 <0>         0.1387
     23 H3          5.7725   -2.1917   -0.0660 H         1 <0>         0.1378
     24 H4          3.3621   -1.7009   -0.0396 H         1 <0>         0.1424
     25 H5          2.3171    2.9483   -0.0045 H         1 <0>         0.2050
     26 H6         -2.6338    0.5818    0.0309 H         1 <0>         0.1457
     27 H7         -4.5113   -1.0059    0.0411 H         1 <0>         0.1572
     28 H8          0.1243   -2.7014   -0.0252 H         1 <0>         0.1572
@<TRIPOS>BOND
     1    1    6 ar
     2    1    2 ar
     3    1   21 1
     4    2    3 ar
     5    2   22 1
     6    3    4 ar
     7    3   20 1
     8    4    5 ar
     9    4   23 1
    10    5    6 ar
    11    5   24 1
    12    6    7 1
    13    7   11 1
    14    7    8 2
    15    8    9 1
    16    8   25 1
    17    9   10 1
    18   10   11 2
    19   10   12 1
    20   12   17 ar
    21   12   13 ar
    22   13   14 ar
    23   13   26 1
    24   14   15 ar
    25   14   27 1
    26   15   16 ar
    27   15   19 1
    28   16   17 ar
    29   16   18 1
    30   17   28 1
@<TRIPOS>MOLECULE
ZINC40418826
   31    33     0     0     0
SMALL
USER_CHARGES

@<TRIPOS>ATOM
      1 C1         -0.0167    1.3793    0.0096 C.ar      1 <0>        -0.0827
      2 C2          1.1684    2.0932    0.0021 C.ar      1 <0>        -0.1148
      3 C3          2.3774    1.4288   -0.0130 C.ar      1 <0>        -0.0840
      4 C4          2.4033    0.0336   -0.0208 C.ar      1 <0>        -0.0443
      5 C5          1.2044   -0.6806   -0.0131 C.ar      1 <0>        -0.0636
      6 C6          0.0021   -0.0041    0.0020 C.ar      1 <0>        -0.1204
      7 C7          3.6955   -0.6850   -0.0375 C.2       1 <0>         0.1870
      8 N1          3.9328   -1.9891   -0.0523 N.2       1 <0>        -0.5100
      9 C8          5.1581   -2.4586   -0.0660 C.2       1 <0>        -0.0091
     10 C9          6.2126   -1.6003   -0.0651 C.2       1 <0>        -0.1837
     11 S1          5.3587   -0.0288   -0.0511 S.3       1 <0>         0.0921
     12 C10         5.3961   -3.9466   -0.0821 C.3       1 <0>         0.0833
     13 N2          5.3640   -4.4625    1.2929 N.4       1 <0>        -0.4782
     14 C11         5.5960   -5.9130    1.2772 C.3       1 <0>        -0.0840
     15 C12         4.4632   -6.8150    1.7712 C.3       1 <0>        -0.1535
     16 C13         5.7172   -6.6237    2.6267 C.3       1 <0>        -0.1540
     17 H1         -0.9605    1.9041    0.0260 H         1 <0>         0.1359
     18 H2          1.1469    3.1730    0.0078 H         1 <0>         0.1383
     19 H3          3.3018    1.9873   -0.0192 H         1 <0>         0.1285
     20 H4          1.2177   -1.7605   -0.0194 H         1 <0>         0.1341
     21 H5         -0.9265   -0.5556    0.0083 H         1 <0>         0.1365
     22 H6          7.2721   -1.8094   -0.0745 H         1 <0>         0.2104
     23 H7          4.6181   -4.4326   -0.6708 H         1 <0>         0.1451
     24 H8          6.3701   -4.1540   -0.5254 H         1 <0>         0.1457
     25 H9          6.0842   -4.0126    1.8379 H         1 <0>         0.4267
     26 H10         6.2122   -6.2817    0.4571 H         1 <0>         0.1793
     27 H11         3.5458   -6.3322    2.1078 H         1 <0>         0.1211
     28 H12         4.3338   -7.7774    1.2760 H         1 <0>         0.1345
     29 H13         6.4128   -7.4602    2.6943 H         1 <0>         0.1349
     30 H14         5.6248   -6.0151    3.5261 H         1 <0>         0.1203
     31 H15         4.4624   -4.2706    1.7032 H         1 <0>         0.4286
@<TRIPOS>BOND
     1    1    6 ar
     2    1    2 ar
     3    1   17 1
     4    2    3 ar
     5    2   18 1
     6    3    4 ar
     7    3   19 1
     8    4    5 ar
     9    4    7 1
    10    5    6 ar
    11    5   20 1
    12    6   21 1
    13    7   11 1
    14    7    8 2
    15    8    9 1
    16    9   10 2
    17    9   12 1
    18   10   11 1
    19   10   22 1
    20   12   13 1
    21   12   23 1
    22   12   24 1
    23   13   14 1
    24   13   25 1
    25   13   31 1
    26   14   16 1
    27   14   15 1
    28   14   26 1
    29   15   16 1
    30   15   27 1
    31   15   28 1
    32   16   29 1
    33   16   30 1
@<TRIPOS>MOLECULE
ZINC51596248
   30    31     0     0     0
SMALL
USER_CHARGES

@<TRIPOS>ATOM
      1 C1         -0.0184    1.5028    0.0103 C.3       1 <0>        -0.1288
      2 C2          0.0021   -0.0041    0.0020 C.ar      1 <0>        -0.0160
      3 C3          0.0057   -0.6861   -1.2022 C.ar      1 <0>        -0.1276
      4 C4          0.0248   -2.0653   -1.2183 C.ar      1 <0>        -0.0520
      5 C5          0.0406   -2.7745   -0.0165 C.ar      1 <0>        -0.0852
      6 C6          0.0368   -2.0809    1.1966 C.ar      1 <0>         0.1594
      7 C7          0.0229   -0.6985    1.1976 C.ar      1 <0>        -0.1599
      8 F1          0.0515   -2.7591    2.3649 F         1 <0>        -0.1187
      9 C8          0.0606   -4.2526   -0.0268 C.2       1 <0>         0.1807
     10 N1          0.0718   -5.1010    0.9919 N.2       1 <0>        -0.5002
     11 C9          0.0895   -6.3990    0.7973 C.2       1 <0>        -0.0093
     12 C10         0.0965   -6.8942   -0.4685 C.2       1 <0>        -0.1829
     13 S1          0.0683   -5.3778   -1.4163 S.3       1 <0>         0.0985
     14 C11         0.1025   -7.3386    1.9755 C.3       1 <0>         0.0768
     15 N2          1.4849   -7.5303    2.4337 N.4       1 <0>        -0.5085
     16 C12         1.4975   -8.4463    3.5821 C.3       1 <0>        -0.0466
     17 H1          1.0042    1.8801    0.0026 H         1 <0>         0.0863
     18 H2         -0.5455    1.8639   -0.8728 H         1 <0>         0.0803
     19 H3         -0.5286    1.8543    0.9071 H         1 <0>         0.0780
     20 H4         -0.0068   -0.1369   -2.1320 H         1 <0>         0.1457
     21 H5          0.0273   -2.5953   -2.1593 H         1 <0>         0.1391
     22 H6          0.0244   -0.1600    2.1338 H         1 <0>         0.1490
     23 H7          0.1105   -7.9194   -0.8078 H         1 <0>         0.2111
     24 H8         -0.4931   -6.9153    2.7844 H         1 <0>         0.1453
     25 H9         -0.3184   -8.2993    1.6787 H         1 <0>         0.1460
     26 H10         2.0362   -7.9221    1.6849 H         1 <0>         0.4279
     27 H11         1.0766   -9.4069    3.2853 H         1 <0>         0.1250
     28 H12         2.5233   -8.5885    3.9222 H         1 <0>         0.1276
     29 H13         0.9020   -8.0230    4.3910 H         1 <0>         0.1253
     30 H14         1.8745   -6.6411    2.7085 H         1 <0>         0.4338
@<TRIPOS>BOND
     1    1    2 1
     2    1   17 1
     3    1   18 1
     4    1   19 1
     5    2    7 ar
     6    2    3 ar
     7    3    4 ar
     8    3   20 1
     9    4    5 ar
    10    4   21 1
    11    5    6 ar
    12    5    9 1
    13    6    7 ar
    14    6    8 1
    15    7   22 1
    16    9   13 1
    17    9   10 2
    18   10   11 1
    19   11   12 2
    20   11   14 1
    21   12   13 1
    22   12   23 1
    23   14   15 1
    24   14   24 1
    25   14   25 1
    26   15   16 1
    27   15   26 1
    28   15   30 1
    29   16   27 1
    30   16   28 1
    31   16   29 1
@<TRIPOS>MOLECULE
ZINC83942737
   22    23     0     0     0
SMALL
USER_CHARGES

@<TRIPOS>ATOM
      1 C1         -0.0168    1.3912    0.0097 C.ar      1 <0>        -0.0588
      2 C2          1.1695    2.0952    0.0021 C.ar      1 <0>        -0.1366
      3 C3          2.3789    1.4197   -0.0135 C.ar      1 <0>         0.1296
      4 C4          2.4040    0.0328   -0.0216 C.ar      1 <0>        -0.0763
      5 C5          1.2228   -0.6807   -0.0137 C.ar      1 <0>        -0.0363
      6 C6          0.0021   -0.0041    0.0020 C.ar      1 <0>        -0.0113
      7 C7         -1.2667   -0.7631    0.0105 C.2       1 <0>         0.1465
      8 N1         -1.4627   -2.0742    0.0109 N.2       1 <0>        -0.4870
      9 C8         -2.6730   -2.5821    0.0199 C.2       1 <0>         0.0431
     10 C9         -3.7536   -1.7576    0.0291 C.2       1 <0>        -0.1570
     11 S1         -2.9498   -0.1600    0.0311 S.3       1 <0>         0.0245
     12 C10        -2.8642   -4.0770    0.0196 C.3       1 <0>         0.1496
     13 O1         -4.2610   -4.3785    0.0298 O.3       1 <0>        -0.5718
     14 Cl1         3.9235   -0.8065   -0.0424 Cl        1 <0>        -0.0355
     15 F1          3.5377    2.1140   -0.0213 F         1 <0>        -0.1186
     16 H1         -0.9589    1.9191    0.0260 H         1 <0>         0.1457
     17 H2          1.1554    3.1751    0.0081 H         1 <0>         0.1568
     18 H3          1.2428   -1.7605   -0.0204 H         1 <0>         0.1570
     19 H4         -4.8060   -2.0001    0.0371 H         1 <0>         0.2072
     20 H5         -2.4073   -4.5015   -0.8744 H         1 <0>         0.0684
     21 H6         -2.3939   -4.5036    0.9055 H         1 <0>         0.0684
     22 H7         -4.4590   -5.3250    0.0301 H         1 <0>         0.3923
@<TRIPOS>BOND
     1    1    6 ar
     2    1    2 ar
     3    1   16 1
     4    2    3 ar
     5    2   17 1
     6    3    4 ar
     7    3   15 1
     8    4    5 ar
     9    4   14 1
    10    5    6 ar
    11    5   18 1
    12    6    7 1
    13    7   11 1
    14    7    8 2
    15    8    9 1
    16    9   10 2
    17    9   12 1
    18   10   11 1
    19   10   19 1
    20   12   13 1
    21   12   20 1
    22   12   21 1
    23   13   22 1
@<TRIPOS>MOLECULE
ZINC85220180
   27    28     0     0     0
SMALL
USER_CHARGES

@<TRIPOS>ATOM
      1 C1         -0.0187    1.5258    0.0104 C.3       1 <0>        -0.1749
      2 C2          0.0021   -0.0041    0.0020 C.3       1 <0>         0.1083
      3 H1         -1.0205   -0.3814    0.0098 H         1 <0>         0.1561
      4 C3          0.7074   -0.4901   -1.2379 C.2       1 <0>         0.0301
      5 C4          1.7602   -1.3437   -1.1319 C.2       1 <0>        -0.2839
      6 S1          2.1782   -1.5677   -2.8563 S.3       1 <0>         0.1644
      7 C5          0.9087   -0.5028   -3.5282 C.2       1 <0>         0.1562
      8 N1          0.3031   -0.0942   -2.4219 N.2       1 <0>        -0.4832
      9 C6          0.6114   -0.1711   -4.9380 C.ar      1 <0>         0.0087
     10 C7         -0.4350    0.6987   -5.2475 C.ar      1 <0>        -0.0528
     11 C8         -0.7071    1.0048   -6.5660 C.ar      1 <0>        -0.0218
     12 C9          0.0557    0.4501   -7.5802 C.ar      1 <0>        -0.0740
     13 C10         1.0939   -0.4125   -7.2800 C.ar      1 <0>        -0.0676
     14 C11         1.3800   -0.7222   -5.9650 C.ar      1 <0>        -0.0762
     15 Br1         2.8049   -1.8964   -5.5565 Br        1 <0>         0.0132
     16 Cl1        -2.0083    2.0866   -6.9534 Cl        1 <0>        -0.0329
     17 N2          0.7126   -0.4907    1.1921 N.4       1 <0>        -0.6342
     18 H2          1.0039    1.9031    0.0027 H         1 <0>         0.0803
     19 H3         -0.5459    1.8868   -0.8726 H         1 <0>         0.1144
     20 H4         -0.5289    1.8773    0.9072 H         1 <0>         0.0873
     21 H5          2.2175   -1.7686   -0.2506 H         1 <0>         0.1932
     22 H6         -1.0309    1.1313   -4.4574 H         1 <0>         0.1575
     23 H7         -0.1616    0.6921   -8.6101 H         1 <0>         0.1580
     24 H8          1.6848   -0.8420   -8.0755 H         1 <0>         0.1590
     25 H9          0.2403   -0.1653    2.0223 H         1 <0>         0.4433
     26 H10         0.7263   -1.4996    1.1866 H         1 <0>         0.4366
     27 H11         1.6592   -0.1414    1.1850 H         1 <0>         0.4348
@<TRIPOS>BOND
     1    1    2 1
     2    1   18 1
     3    1   19 1
     4    1   20 1
     5    2    3 1
     6    2    4 1
     7    2   17 1
     8    4    8 1
     9    4    5 2
    10    5    6 1
    11    5   21 1
    12    6    7 1
    13    7    8 2
    14    7    9 1
    15    9   14 ar
    16    9   10 ar
    17   10   11 ar
    18   10   22 1
    19   11   12 ar
    20   11   16 1
    21   12   13 ar
    22   12   23 1
    23   13   14 ar
    24   13   24 1
    25   14   15 1
    26   17   25 1
    27   17   26 1
    28   17   27 1
@<TRIPOS>MOLECULE
ZINC85220183
   27    28     0     0     0
SMALL
USER_CHARGES

@<TRIPOS>ATOM
      1 C1         -0.0187    1.5258    0.0104 C.3       1 <0>        -0.1773
      2 C2          0.0021   -0.0041    0.0020 C.3       1 <0>         0.1161
      3 H1         -1.0205   -0.3814    0.0098 H         1 <0>         0.1525
      4 C3          0.7309   -0.5033    1.2229 C.2       1 <0>        -0.0169
      5 C4          0.1264   -1.3835    2.0643 C.2       1 <0>        -0.1996
      6 S1          1.4145   -1.6119    3.2839 S.3       1 <0>         0.1569
      7 C5          2.6141   -0.5131    2.5419 C.2       1 <0>         0.1430
      8 N1          1.9523   -0.0933    1.4727 N.2       1 <0>        -0.4966
      9 C6          3.9785   -0.1691    2.9960 C.ar      1 <0>         0.0127
     10 C7          4.7559    0.7278    2.2622 C.ar      1 <0>        -0.0575
     11 C8          6.0289    1.0452    2.6919 C.ar      1 <0>        -0.0218
     12 C9          6.5348    0.4751    3.8483 C.ar      1 <0>        -0.0760
     13 C10         5.7693   -0.4143    4.5799 C.ar      1 <0>        -0.0664
     14 C11         4.4923   -0.7357    4.1640 C.ar      1 <0>        -0.0777
     15 Br1         3.4448   -1.9467    5.1700 Br        1 <0>         0.0146
     16 Cl1         6.9978    2.1607    1.7806 Cl        1 <0>        -0.0346
     17 N2          0.6897   -0.4778   -1.2066 N.4       1 <0>        -0.6343
     18 H2          1.0039    1.9031    0.0027 H         1 <0>         0.0893
     19 H3         -0.5459    1.8868   -0.8726 H         1 <0>         0.0856
     20 H4         -0.5289    1.8773    0.9072 H         1 <0>         0.1035
     21 H5         -0.8588   -1.8228    2.0112 H         1 <0>         0.2052
     22 H6          4.3627    1.1724    1.3599 H         1 <0>         0.1545
     23 H7          7.5315    0.7261    4.1799 H         1 <0>         0.1575
     24 H8          6.1697   -0.8557    5.4806 H         1 <0>         0.1587
     25 H9          1.6363   -0.1286   -1.2138 H         1 <0>         0.4374
     26 H10         0.7033   -1.4867   -1.2121 H         1 <0>         0.4345
     27 H11         0.2017   -0.1436   -2.0240 H         1 <0>         0.4368
@<TRIPOS>BOND
     1    1    2 1
     2    1   18 1
     3    1   19 1
     4    1   20 1
     5    2    3 1
     6    2    4 1
     7    2   17 1
     8    4    8 1
     9    4    5 2
    10    5    6 1
    11    5   21 1
    12    6    7 1
    13    7    8 2
    14    7    9 1
    15    9   14 ar
    16    9   10 ar
    17   10   11 ar
    18   10   22 1
    19   11   12 ar
    20   11   16 1
    21   12   13 ar
    22   12   23 1
    23   13   14 ar
    24   13   24 1
    25   14   15 1
    26   17   25 1
    27   17   26 1
    28   17   27 1
@<TRIPOS>MOLECULE
ZINC41010091
   33    34     0     0     0
SMALL
USER_CHARGES

@<TRIPOS>ATOM
      1 C1         -0.0187    1.5258    0.0104 C.3       1 <0>        -0.1562
      2 C2          0.0021   -0.0041    0.0020 C.3       1 <0>        -0.1514
      3 C3         -1.4333   -0.5336    0.0129 C.3       1 <0>        -0.0103
      4 N1         -1.4134   -2.0025    0.0048 N.4       1 <0>        -0.5088
      5 C4         -2.7915   -2.5110    0.0152 C.3       1 <0>         0.0778
      6 C5         -2.7711   -4.0178    0.0069 C.2       1 <0>        -0.0169
      7 C6         -2.8583   -4.7062    1.1757 C.2       1 <0>        -0.1994
      8 S1         -2.7866   -6.3888    0.5739 S.3       1 <0>         0.1441
      9 C7         -2.6487   -5.9927   -1.1642 C.2       1 <0>         0.1495
     10 N2         -2.6745   -4.6677   -1.1294 N.2       1 <0>        -0.4784
     11 C8         -2.5403   -6.8987   -2.3272 C.ar      1 <0>        -0.0172
     12 C9         -2.4347   -6.3747   -3.6174 C.ar      1 <0>         0.0163
     13 C10        -2.3333   -7.2270   -4.6991 C.ar      1 <0>        -0.1038
     14 C11        -2.3362   -8.5970   -4.5071 C.ar      1 <0>        -0.0626
     15 C12        -2.4409   -9.1231   -3.2321 C.ar      1 <0>        -0.0979
     16 C13        -2.5372   -8.2827   -2.1405 C.ar      1 <0>        -0.0110
     17 Cl1        -2.6608   -8.9451   -0.5406 Cl        1 <0>        -0.0170
     18 Cl2        -2.4315   -4.6558   -3.8607 Cl        1 <0>        -0.0257
     19 H1          1.0039    1.9031    0.0027 H         1 <0>         0.0775
     20 H2         -0.5459    1.8868   -0.8726 H         1 <0>         0.0674
     21 H3         -0.5289    1.8773    0.9072 H         1 <0>         0.0674
     22 H4          0.5123   -0.3556   -0.8948 H         1 <0>         0.0860
     23 H5          0.5293   -0.3651    0.8851 H         1 <0>         0.0862
     24 H6         -1.9435   -0.1821    0.9097 H         1 <0>         0.1331
     25 H7         -1.9605   -0.1726   -0.8702 H         1 <0>         0.1324
     26 H8         -0.9411   -2.3279   -0.8254 H         1 <0>         0.4306
     27 H9         -3.3017   -2.1594    0.9120 H         1 <0>         0.1450
     28 H10        -3.3187   -2.1499   -0.8678 H         1 <0>         0.1432
     29 H11        -2.9464   -4.3389    2.1875 H         1 <0>         0.2068
     30 H12        -2.2520   -6.8232   -5.6975 H         1 <0>         0.1543
     31 H13        -2.2566   -9.2589   -5.3568 H         1 <0>         0.1569
     32 H14        -2.4428  -10.1937   -3.0895 H         1 <0>         0.1559
     33 H15        -0.9254   -2.3367    0.8222 H         1 <0>         0.4260
@<TRIPOS>BOND
     1    1    2 1
     2    1   19 1
     3    1   20 1
     4    1   21 1
     5    2    3 1
     6    2   22 1
     7    2   23 1
     8    3    4 1
     9    3   24 1
    10    3   25 1
    11    4    5 1
    12    4   26 1
    13    4   33 1
    14    5    6 1
    15    5   27 1
    16    5   28 1
    17    6   10 1
    18    6    7 2
    19    7    8 1
    20    7   29 1
    21    8    9 1
    22    9   10 2
    23    9   11 1
    24   11   16 ar
    25   11   12 ar
    26   12   13 ar
    27   12   18 1
    28   13   14 ar
    29   13   30 1
    30   14   15 ar
    31   14   31 1
    32   15   16 ar
    33   15   32 1
    34   16   17 1
@<TRIPOS>MOLECULE
ZINC62786667
   27    28     0     0     0
SMALL
USER_CHARGES

@<TRIPOS>ATOM
      1 C1         -0.0178    1.4648    0.0101 C.3       1 <0>        -0.0468
      2 N1          0.0021   -0.0041    0.0020 N.4       1 <0>        -0.5087
      3 C2          0.6897   -0.4778   -1.2066 C.3       1 <0>         0.0773
      4 C3          0.7101   -1.9847   -1.2149 C.2       1 <0>        -0.0136
      5 C4         -0.2477   -2.6746   -1.8884 C.2       1 <0>        -0.1880
      6 S1          0.2638   -4.3564   -1.5592 S.3       1 <0>         0.1337
      7 C5          1.6940   -3.9580   -0.5629 C.2       1 <0>         0.1641
      8 N2          1.6562   -2.6328   -0.5760 N.2       1 <0>        -0.5000
      9 C6          2.6615   -4.8625    0.0936 C.ar      1 <0>        -0.0672
     10 C7          3.7171   -4.3368    0.8401 C.ar      1 <0>        -0.0251
     11 C8          4.6168   -5.1854    1.4504 C.ar      1 <0>        -0.1190
     12 C9          4.4755   -6.5576    1.3245 C.ar      1 <0>         0.0184
     13 C10         3.4316   -7.0870    0.5861 C.ar      1 <0>        -0.1416
     14 C11         2.5197   -6.2477   -0.0258 C.ar      1 <0>         0.1444
     15 F1          1.4972   -6.7648   -0.7415 F         1 <0>        -0.1165
     16 Cl1         5.6133   -7.6178    2.0959 Cl        1 <0>        -0.0277
     17 H1          1.0047    1.8421    0.0024 H         1 <0>         0.1253
     18 H2         -0.5450    1.8259   -0.8730 H         1 <0>         0.1252
     19 H3         -0.5280    1.8163    0.9069 H         1 <0>         0.1278
     20 H4          0.4901   -0.3383    0.8195 H         1 <0>         0.4330
     21 H5          0.1625   -0.1167   -2.0897 H         1 <0>         0.1463
     22 H6          1.7123   -0.1005   -1.2143 H         1 <0>         0.1454
     23 H7         -1.0856   -2.3087   -2.4632 H         1 <0>         0.2113
     24 H8          3.8294   -3.2673    0.9394 H         1 <0>         0.1554
     25 H9          5.4339   -4.7789    2.0278 H         1 <0>         0.1557
     26 H10         3.3267   -8.1577    0.4916 H         1 <0>         0.1623
     27 H11        -0.9445   -0.3533    0.0092 H         1 <0>         0.4286
@<TRIPOS>BOND
     1    1    2 1
     2    1   17 1
     3    1   18 1
     4    1   19 1
     5    2    3 1
     6    2   20 1
     7    2   27 1
     8    3    4 1
     9    3   21 1
    10    3   22 1
    11    4    8 1
    12    4    5 2
    13    5    6 1
    14    5   23 1
    15    6    7 1
    16    7    8 2
    17    7    9 1
    18    9   14 ar
    19    9   10 ar
    20   10   11 ar
    21   10   24 1
    22   11   12 ar
    23   11   25 1
    24   12   13 ar
    25   12   16 1
    26   13   14 ar
    27   13   26 1
    28   14   15 1
@<TRIPOS>MOLECULE
ZINC40414306
   33    34     0     0     0
SMALL
USER_CHARGES

@<TRIPOS>ATOM
      1 C1         -0.0187    1.5258    0.0104 C.3       1 <0>        -0.1856
      2 C2          0.0021   -0.0041    0.0020 C.3       1 <0>         0.0239
      3 C3          0.7182   -0.4975   -1.2568 C.3       1 <0>        -0.1841
      4 N1          0.7126   -0.4907    1.1921 N.4       1 <0>        -0.5063
      5 C4         -0.0398   -0.1189    2.3978 C.3       1 <0>         0.0746
      6 C5          0.6890   -0.6181    3.6187 C.2       1 <0>        -0.0134
      7 C6          1.5341    0.2069    4.2919 C.2       1 <0>        -0.2058
      8 S1          2.0886   -0.8826    5.5973 S.3       1 <0>         0.1393
      9 C7          1.1369   -2.3140    5.1051 C.2       1 <0>         0.1608
     10 N2          0.5048   -1.8483    4.0369 N.2       1 <0>        -0.5002
     11 C8          1.0689   -3.6542    5.7256 C.ar      1 <0>        -0.0264
     12 C9          0.2558   -4.6433    5.1704 C.ar      1 <0>        -0.0552
     13 C10         0.1967   -5.8917    5.7541 C.ar      1 <0>        -0.1120
     14 C11         0.9413   -6.1653    6.8880 C.ar      1 <0>        -0.0738
     15 C12         1.7494   -5.1904    7.4441 C.ar      1 <0>        -0.1027
     16 C13         1.8224   -3.9379    6.8666 C.ar      1 <0>        -0.0187
     17 Cl1         2.8427   -2.7172    7.5614 Cl        1 <0>        -0.0291
     18 H1          1.0039    1.9031    0.0027 H         1 <0>         0.0821
     19 H2         -0.5459    1.8868   -0.8726 H         1 <0>         0.1070
     20 H3         -0.5289    1.8773    0.9072 H         1 <0>         0.0814
     21 H4         -1.0205   -0.3814    0.0098 H         1 <0>         0.1403
     22 H5          1.7408   -0.1202   -1.2645 H         1 <0>         0.0811
     23 H6          0.7330   -1.5874   -1.2628 H         1 <0>         0.0816
     24 H7          0.1910   -0.1364   -2.1398 H         1 <0>         0.1076
     25 H8          0.7982   -1.4950    1.1455 H         1 <0>         0.4305
     26 H9         -0.1324    0.9660    2.4481 H         1 <0>         0.1451
     27 H10        -1.0328   -0.5668    2.3589 H         1 <0>         0.1435
     28 H11         1.7979    1.2352    4.0933 H         1 <0>         0.2059
     29 H12        -0.3263   -4.4315    4.2856 H         1 <0>         0.1445
     30 H13        -0.4325   -6.6576    5.3252 H         1 <0>         0.1443
     31 H14         0.8908   -7.1444    7.3409 H         1 <0>         0.1466
     32 H15         2.3280   -5.4104    8.3292 H         1 <0>         0.1492
     33 H16         1.6317   -0.0761    1.2281 H         1 <0>         0.4239
@<TRIPOS>BOND
     1    1    2 1
     2    1   18 1
     3    1   19 1
     4    1   20 1
     5    2    3 1
     6    2    4 1
     7    2   21 1
     8    3   22 1
     9    3   23 1
    10    3   24 1
    11    4    5 1
    12    4   25 1
    13    4   33 1
    14    5    6 1
    15    5   26 1
    16    5   27 1
    17    6   10 1
    18    6    7 2
    19    7    8 1
    20    7   28 1
    21    8    9 1
    22    9   10 2
    23    9   11 1
    24   11   16 ar
    25   11   12 ar
    26   12   13 ar
    27   12   29 1
    28   13   14 ar
    29   13   30 1
    30   14   15 ar
    31   14   31 1
    32   15   16 ar
    33   15   32 1
    34   16   17 1
@<TRIPOS>MOLECULE
ZINC62802528
   29    31     0     0     0
SMALL
USER_CHARGES

@<TRIPOS>ATOM
      1 C1         -0.0168    1.3886    0.0097 C.ar      1 <0>        -0.1684
      2 C2          1.1579    2.0858    0.0022 C.ar      1 <0>        -0.0486
      3 C3          2.3631    1.3572   -0.0132 C.ar      1 <0>        -0.1110
      4 C4          3.6054    2.0071   -0.0210 C.ar      1 <0>        -0.0425
      5 C5          4.7671    1.2534   -0.0358 C.ar      1 <0>        -0.0382
      6 C6          4.7039   -0.1514   -0.0433 C.ar      1 <0>        -0.0653
      7 C7          3.5096   -0.7959   -0.0359 C.ar      1 <0>        -0.0833
      8 C8          2.3101   -0.0597   -0.0204 C.ar      1 <0>         0.1486
      9 N1          1.1261   -0.6792   -0.0118 N.ar      1 <0>        -0.4767
     10 C9          0.0021   -0.0041    0.0020 C.ar      1 <0>         0.1546
     11 C10         6.0814    1.9296   -0.0441 C.2       1 <0>         0.1845
     12 N2          7.2983    1.4035   -0.0635 N.2       1 <0>        -0.5068
     13 C11         8.3686    2.1625   -0.0682 C.2       1 <0>        -0.0122
     14 C12         8.2395    3.5160   -0.0529 C.2       1 <0>        -0.1824
     15 S1          6.4584    3.6774   -0.0386 S.3       1 <0>         0.0942
     16 C13         9.7387    1.5352   -0.0899 C.3       1 <0>         0.0793
     17 N3         10.1490    1.2075    1.2820 N.4       1 <0>        -0.6349
     18 H1         -0.9588    1.9165    0.0260 H         1 <0>         0.1478
     19 H2          1.1624    3.1657    0.0076 H         1 <0>         0.1458
     20 H3          3.6559    3.0859   -0.0159 H         1 <0>         0.1367
     21 H4          5.6187   -0.7254   -0.0556 H         1 <0>         0.1411
     22 H5          3.4796   -1.8755   -0.0419 H         1 <0>         0.1481
     23 H6         -0.9342   -0.5423    0.0081 H         1 <0>         0.1690
     24 H7          9.0014    4.2815   -0.0536 H         1 <0>         0.2112
     25 H8          9.7119    0.6247   -0.6885 H         1 <0>         0.1478
     26 H9         10.4519    2.2353   -0.5250 H         1 <0>         0.1485
     27 H10        10.1738    2.0504    1.8361 H         1 <0>         0.4337
     28 H11         9.4887    0.5595    1.6848 H         1 <0>         0.4386
     29 H12        11.0663    0.7875    1.2675 H         1 <0>         0.4406
@<TRIPOS>BOND
     1    1   10 ar
     2    1    2 ar
     3    1   18 1
     4    2    3 ar
     5    2   19 1
     6    3    8 ar
     7    3    4 ar
     8    4    5 ar
     9    4   20 1
    10    5    6 ar
    11    5   11 1
    12    6    7 ar
    13    6   21 1
    14    7    8 ar
    15    7   22 1
    16    8    9 ar
    17    9   10 ar
    18   10   23 1
    19   11   15 1
    20   11   12 2
    21   12   13 1
    22   13   14 2
    23   13   16 1
    24   14   15 1
    25   14   24 1
    26   16   17 1
    27   16   25 1
    28   16   26 1
    29   17   27 1
    30   17   28 1
    31   17   29 1
@<TRIPOS>MOLECULE
ZINC41009981
   36    37     0     0     0
SMALL
USER_CHARGES

@<TRIPOS>ATOM
      1 C1         -0.4865    1.4580   -0.0066 C.3       1 <0>        -0.1266
      2 C2         -0.2215   -0.0255   -0.0061 C.ar      1 <0>        -0.0371
      3 C3         -0.0382   -0.6928   -1.2041 C.ar      1 <0>        -0.1308
      4 C4          0.2053   -2.0509   -1.2105 C.ar      1 <0>        -0.0203
      5 C5          0.2664   -2.7513   -0.0051 C.ar      1 <0>        -0.0608
      6 C6          0.0806   -2.0723    1.1998 C.ar      1 <0>        -0.0363
      7 C7         -0.1569   -0.7132    1.1927 C.ar      1 <0>        -0.1285
      8 C8          0.1444   -2.8209    2.5061 C.3       1 <0>        -0.1280
      9 C9          0.5264   -4.2070   -0.0046 C.2       1 <0>         0.1998
     10 N1         -0.0440   -5.1638   -0.7232 N.2       1 <0>        -0.5031
     11 C10         0.3143   -6.4194   -0.5928 C.2       1 <0>        -0.0153
     12 C11         1.2884   -6.7574    0.2934 C.2       1 <0>        -0.1859
     13 S1          1.7004   -5.1497    0.9598 S.3       1 <0>         0.0884
     14 C12        -0.3531   -7.4849   -1.4236 C.3       1 <0>         0.0771
     15 N2         -1.5922   -7.9165   -0.7629 N.4       1 <0>        -0.5087
     16 C13        -2.2428   -8.9552   -1.5728 C.3       1 <0>        -0.0467
     17 C14         0.4042   -2.7762   -2.5164 C.3       1 <0>        -0.1299
     18 H1          0.4601    1.9962    0.0424 H         1 <0>         0.0814
     19 H2         -1.0137    1.7326   -0.9202 H         1 <0>         0.0742
     20 H3         -1.0976    1.7182    0.8577 H         1 <0>         0.0743
     21 H4         -0.0861   -0.1496   -2.1363 H         1 <0>         0.1350
     22 H5         -0.2965   -0.1857    2.1247 H         1 <0>         0.1359
     23 H6          1.1700   -2.8210    2.8752 H         1 <0>         0.0819
     24 H7         -0.5041   -2.3352    3.2353 H         1 <0>         0.0828
     25 H8         -0.1866   -3.8481    2.3528 H         1 <0>         0.0611
     26 H9          1.7017   -7.7274    0.5272 H         1 <0>         0.2085
     27 H10        -0.5879   -7.0832   -2.4093 H         1 <0>         0.1442
     28 H11         0.3182   -8.3371   -1.5290 H         1 <0>         0.1450
     29 H12        -1.3749   -8.2883    0.1495 H         1 <0>         0.4281
     30 H13        -2.4775   -8.5535   -2.5585 H         1 <0>         0.1250
     31 H14        -1.5714   -9.8074   -1.6782 H         1 <0>         0.1249
     32 H15        -3.1621   -9.2754   -1.0825 H         1 <0>         0.1274
     33 H16         1.4704   -2.8570   -2.7283 H         1 <0>         0.0724
     34 H17        -0.0291   -3.7740   -2.4475 H         1 <0>         0.0826
     35 H18        -0.0846   -2.2223   -3.3178 H         1 <0>         0.0747
     36 H19        -2.2137   -7.1276   -0.6653 H         1 <0>         0.4333
@<TRIPOS>BOND
     1    1    2 1
     2    1   18 1
     3    1   19 1
     4    1   20 1
     5    2    7 ar
     6    2    3 ar
     7    3    4 ar
     8    3   21 1
     9    4    5 ar
    10    4   17 1
    11    5    6 ar
    12    5    9 1
    13    6    7 ar
    14    6    8 1
    15    7   22 1
    16    8   23 1
    17    8   24 1
    18    8   25 1
    19    9   13 1
    20    9   10 2
    21   10   11 1
    22   11   12 2
    23   11   14 1
    24   12   13 1
    25   12   26 1
    26   14   15 1
    27   14   27 1
    28   14   28 1
    29   15   16 1
    30   15   29 1
    31   15   36 1
    32   16   30 1
    33   16   31 1
    34   16   32 1
    35   17   33 1
    36   17   34 1
    37   17   35 1
@<TRIPOS>MOLECULE
ZINC40420121
   27    28     0     0     0
SMALL
USER_CHARGES

@<TRIPOS>ATOM
      1 C1         -0.0178    1.4648    0.0101 C.3       1 <0>        -0.0469
      2 N1          0.0021   -0.0041    0.0020 N.4       1 <0>        -0.5086
      3 C2          0.6897   -0.4778   -1.2066 C.3       1 <0>         0.0767
      4 C3          0.7101   -1.9847   -1.2149 C.2       1 <0>        -0.0112
      5 C4         -0.2479   -2.6749   -1.8886 C.2       1 <0>        -0.1800
      6 S1          0.2643   -4.3566   -1.5598 S.3       1 <0>         0.1025
      7 C5          1.6945   -3.9577   -0.5637 C.2       1 <0>         0.1777
      8 N2          1.6558   -2.6327   -0.5762 N.2       1 <0>        -0.5046
      9 C6          2.6627   -4.8621    0.0927 C.ar      1 <0>        -0.0271
     10 C7          3.7180   -4.3359    0.8391 C.ar      1 <0>        -0.0578
     11 C8          4.6179   -5.1848    1.4495 C.ar      1 <0>        -0.0915
     12 C9          4.4759   -6.5561    1.3226 C.ar      1 <0>        -0.0634
     13 C10         3.4313   -7.0839    0.5831 C.ar      1 <0>        -0.0864
     14 C11         2.5215   -6.2454   -0.0268 C.ar      1 <0>        -0.0782
     15 Br1         5.7141   -7.7127    2.1621 Br        1 <0>        -0.0226
     16 H1          1.0047    1.8421    0.0024 H         1 <0>         0.1254
     17 H2         -0.5450    1.8259   -0.8730 H         1 <0>         0.1252
     18 H3         -0.5280    1.8163    0.9069 H         1 <0>         0.1279
     19 H4          0.4901   -0.3383    0.8195 H         1 <0>         0.4332
     20 H5          0.1625   -0.1167   -2.0897 H         1 <0>         0.1463
     21 H6          1.7123   -0.1005   -1.2143 H         1 <0>         0.1454
     22 H7         -1.0863   -2.3091   -2.4628 H         1 <0>         0.2115
     23 H8          3.8302   -3.2664    0.9382 H         1 <0>         0.1441
     24 H9          5.4350   -4.7788    2.0274 H         1 <0>         0.1470
     25 H10         3.3260   -8.1545    0.4870 H         1 <0>         0.1486
     26 H11         1.7042   -6.6584   -0.5994 H         1 <0>         0.1382
     27 H12        -0.9445   -0.3533    0.0092 H         1 <0>         0.4285
@<TRIPOS>BOND
     1    1    2 1
     2    1   16 1
     3    1   17 1
     4    1   18 1
     5    2    3 1
     6    2   19 1
     7    2   27 1
     8    3    4 1
     9    3   20 1
    10    3   21 1
    11    4    8 1
    12    4    5 2
    13    5    6 1
    14    5   22 1
    15    6    7 1
    16    7    8 2
    17    7    9 1
    18    9   14 ar
    19    9   10 ar
    20   10   11 ar
    21   10   23 1
    22   11   12 ar
    23   11   24 1
    24   12   13 ar
    25   12   15 1
    26   13   14 ar
    27   13   25 1
    28   14   26 1
@<TRIPOS>MOLECULE
ZINC41009953
   33    34     0     0     0
SMALL
USER_CHARGES

@<TRIPOS>ATOM
      1 C1         -0.4763    1.4576    0.1071 C.3       1 <0>        -0.1271
      2 C2         -0.2166   -0.0257    0.0482 C.ar      1 <0>        -0.0417
      3 C3         -0.0694   -0.6511   -1.1772 C.ar      1 <0>        -0.1256
      4 C4          0.1690   -2.0085   -1.2380 C.ar      1 <0>        -0.0724
      5 C5          0.2614   -2.7511   -0.0599 C.ar      1 <0>        -0.0569
      6 C6          0.1119   -2.1143    1.1726 C.ar      1 <0>        -0.0255
      7 C7         -0.1209   -0.7550    1.2197 C.ar      1 <0>        -0.1244
      8 C8          0.2103   -2.9083    2.4497 C.3       1 <0>        -0.1135
      9 C9          0.5162   -4.2065   -0.1176 C.2       1 <0>         0.1938
     10 N1          1.3769   -4.9381    0.5761 N.2       1 <0>        -0.5011
     11 C10         1.4714   -6.2342    0.3940 C.2       1 <0>        -0.0148
     12 C11         0.6761   -6.8495   -0.5211 C.2       1 <0>        -0.1830
     13 S1         -0.2592   -5.4547   -1.1362 S.3       1 <0>         0.0875
     14 C12         2.4600   -7.0392    1.1975 C.3       1 <0>         0.0772
     15 N2          3.7748   -6.9935    0.5439 N.4       1 <0>        -0.5086
     16 C13         4.7385   -7.7782    1.3272 C.3       1 <0>        -0.0467
     17 H1          0.4732    1.9914    0.1482 H         1 <0>         0.0807
     18 H2         -1.0280    1.7654   -0.7812 H         1 <0>         0.0749
     19 H3         -1.0620    1.6890    0.9968 H         1 <0>         0.0744
     20 H4         -0.1415   -0.0754   -2.0881 H         1 <0>         0.1364
     21 H5          0.2834   -2.4956   -2.1951 H         1 <0>         0.1294
     22 H6         -0.2323   -0.2601    2.1732 H         1 <0>         0.1356
     23 H7          1.2571   -3.0045    2.7380 H         1 <0>         0.0793
     24 H8         -0.3385   -2.3955    3.2396 H         1 <0>         0.0730
     25 H9         -0.2165   -3.8993    2.2952 H         1 <0>         0.0619
     26 H10         0.6215   -7.8922   -0.7972 H         1 <0>         0.2089
     27 H11         2.5385   -6.6212    2.2011 H         1 <0>         0.1444
     28 H12         2.1211   -8.0732    1.2601 H         1 <0>         0.1450
     29 H13         3.7022   -7.3804   -0.3851 H         1 <0>         0.4281
     30 H14         5.7141   -7.7443    0.8422 H         1 <0>         0.1274
     31 H15         4.8170   -7.3602    2.3308 H         1 <0>         0.1250
     32 H16         4.3996   -8.8123    1.3897 H         1 <0>         0.1249
     33 H17         4.0886   -6.0363    0.4860 H         1 <0>         0.4334
@<TRIPOS>BOND
     1    1    2 1
     2    1   17 1
     3    1   18 1
     4    1   19 1
     5    2    7 ar
     6    2    3 ar
     7    3    4 ar
     8    3   20 1
     9    4    5 ar
    10    4   21 1
    11    5    6 ar
    12    5    9 1
    13    6    7 ar
    14    6    8 1
    15    7   22 1
    16    8   23 1
    17    8   24 1
    18    8   25 1
    19    9   13 1
    20    9   10 2
    21   10   11 1
    22   11   12 2
    23   11   14 1
    24   12   13 1
    25   12   26 1
    26   14   15 1
    27   14   27 1
    28   14   28 1
    29   15   16 1
    30   15   29 1
    31   15   33 1
    32   16   30 1
    33   16   31 1
    34   16   32 1
@<TRIPOS>MOLECULE
ZINC83968230
   31    32     0     0     0
SMALL
USER_CHARGES

@<TRIPOS>ATOM
      1 C1         -0.0173    1.4248    0.0099 C.3       1 <0>         0.0286
      2 O1          0.0021   -0.0041    0.0020 O.3       1 <0>        -0.3861
      3 C2          0.6518   -0.5703   -1.1379 C.3       1 <0>         0.0963
      4 C3          0.6137   -2.0738   -1.0425 C.ar      1 <0>        -0.0849
      5 C4          1.6375   -2.7512   -0.4041 C.ar      1 <0>        -0.0615
      6 C5          1.6100   -4.1312   -0.3123 C.ar      1 <0>        -0.1207
      7 C6          0.5599   -4.8412   -0.8576 C.ar      1 <0>        -0.0563
      8 C7         -0.4758   -4.1641   -1.5023 C.ar      1 <0>        -0.0461
      9 C8         -0.4446   -2.7713   -1.5869 C.ar      1 <0>        -0.0627
     10 C9         -1.6039   -4.9186   -2.0894 C.2       1 <0>         0.1889
     11 N1         -1.8229   -6.2258   -2.1075 N.2       1 <0>        -0.5105
     12 C10        -2.8906   -6.7300   -2.6800 C.2       1 <0>        -0.0126
     13 C11        -3.7967   -5.9052   -3.2692 C.2       1 <0>        -0.1850
     14 S1         -3.0439   -4.3128   -2.9591 S.3       1 <0>         0.0945
     15 C12        -3.1118   -8.2206   -2.6849 C.3       1 <0>         0.0796
     16 N2         -2.3940   -8.8185   -3.8186 N.4       1 <0>        -0.6349
     17 H1          1.0053    1.8021    0.0021 H         1 <0>         0.0464
     18 H2         -0.5445    1.7859   -0.8732 H         1 <0>         0.0448
     19 H3         -0.5275    1.7763    0.9067 H         1 <0>         0.0917
     20 H4          0.1385   -0.2506   -2.0447 H         1 <0>         0.0626
     21 H5          1.6883   -0.2344   -1.1694 H         1 <0>         0.0669
     22 H6          2.4618   -2.2002    0.0241 H         1 <0>         0.1371
     23 H7          2.4123   -4.6541    0.1870 H         1 <0>         0.1399
     24 H8          0.5400   -5.9186   -0.7859 H         1 <0>         0.1364
     25 H9         -1.2453   -2.2411   -2.0810 H         1 <0>         0.1295
     26 H10        -4.7180   -6.1449   -3.7793 H         1 <0>         0.2105
     27 H11        -2.7387   -8.6464   -1.7534 H         1 <0>         0.1472
     28 H12        -4.1775   -8.4295   -2.7787 H         1 <0>         0.1482
     29 H13        -2.7393   -8.4244   -4.6809 H         1 <0>         0.4337
     30 H14        -1.4075   -8.6251   -3.7318 H         1 <0>         0.4383
     31 H15        -2.5421   -9.8165   -3.8219 H         1 <0>         0.4403
@<TRIPOS>BOND
     1    1    2 1
     2    1   17 1
     3    1   18 1
     4    1   19 1
     5    2    3 1
     6    3    4 1
     7    3   20 1
     8    3   21 1
     9    4    9 ar
    10    4    5 ar
    11    5    6 ar
    12    5   22 1
    13    6    7 ar
    14    6   23 1
    15    7    8 ar
    16    7   24 1
    17    8    9 ar
    18    8   10 1
    19    9   25 1
    20   10   14 1
    21   10   11 2
    22   11   12 1
    23   12   13 2
    24   12   15 1
    25   13   14 1
    26   13   26 1
    27   15   16 1
    28   15   27 1
    29   15   28 1
    30   16   29 1
    31   16   30 1
    32   16   31 1
@<TRIPOS>MOLECULE
ZINC94902814
   39    40     0     0     0
SMALL
USER_CHARGES

@<TRIPOS>ATOM
      1 C1         -0.0187    1.5258    0.0104 C.3       1 <0>        -0.1543
      2 C2          0.0021   -0.0041    0.0020 C.3       1 <0>        -0.0895
      3 C3         -1.4333   -0.5336    0.0129 C.3       1 <0>        -0.1512
      4 C4          0.7182   -0.4975   -1.2568 C.3       1 <0>        -0.0888
      5 C5          2.1652   -0.0794   -1.2080 C.ar      1 <0>        -0.0366
      6 C6          2.5485    1.1389   -1.7399 C.ar      1 <0>        -0.1132
      7 C7          3.8715    1.5278   -1.6981 C.ar      1 <0>        -0.0796
      8 C8          4.8240    0.6892   -1.1175 C.ar      1 <0>        -0.0513
      9 C9          4.4309   -0.5383   -0.5828 C.ar      1 <0>        -0.0578
     10 C10         3.1038   -0.9130   -0.6263 C.ar      1 <0>        -0.1206
     11 C11         6.2438    1.0994   -1.0697 C.2       1 <0>         0.1911
     12 N1          7.2899    0.4537   -0.5737 N.2       1 <0>        -0.5125
     13 C12         8.4942    0.9730   -0.6164 C.2       1 <0>        -0.0088
     14 C13         8.6849    2.1965   -1.1777 C.2       1 <0>        -0.1865
     15 S1          7.0134    2.5967   -1.6722 S.3       1 <0>         0.0889
     16 C14         9.6639    0.2148   -0.0437 C.3       1 <0>         0.0769
     17 N2          9.7561    0.4738    1.3994 N.4       1 <0>        -0.5085
     18 C15        10.8963   -0.2653    1.9577 C.3       1 <0>        -0.0468
     19 H1          1.0039    1.9031    0.0027 H         1 <0>         0.0556
     20 H2         -0.5459    1.8868   -0.8726 H         1 <0>         0.0574
     21 H3         -0.5289    1.8773    0.9072 H         1 <0>         0.0572
     22 H4          0.5293   -0.3651    0.8851 H         1 <0>         0.0713
     23 H5         -1.9605   -0.1726   -0.8702 H         1 <0>         0.0578
     24 H6         -1.4185   -1.6235    0.0069 H         1 <0>         0.0569
     25 H7         -1.9435   -0.1821    0.9097 H         1 <0>         0.0590
     26 H8          0.6556   -1.5845   -1.3079 H         1 <0>         0.0803
     27 H9          0.2444   -0.0644   -2.1377 H         1 <0>         0.0808
     28 H10         1.8104    1.7868   -2.1893 H         1 <0>         0.1369
     29 H11         4.1695    2.4789   -2.1140 H         1 <0>         0.1281
     30 H12         5.1633   -1.1919   -0.1325 H         1 <0>         0.1339
     31 H13         2.7975   -1.8608   -0.2089 H         1 <0>         0.1351
     32 H14         9.5944    2.7669   -1.2960 H         1 <0>         0.2095
     33 H15         9.5229   -0.8528   -0.2129 H         1 <0>         0.1447
     34 H16        10.5825    0.5416   -0.5309 H         1 <0>         0.1455
     35 H17         9.8867    1.4620    1.5560 H         1 <0>         0.4283
     36 H18        10.9647   -0.0731    3.0284 H         1 <0>         0.1276
     37 H19        10.7553   -1.3329    1.7884 H         1 <0>         0.1251
     38 H20        11.8149    0.0615    1.4704 H         1 <0>         0.1250
     39 H21         8.9058    0.1712    1.8504 H         1 <0>         0.4332
@<TRIPOS>BOND
     1    1    2 1
     2    1   19 1
     3    1   20 1
     4    1   21 1
     5    2    3 1
     6    2    4 1
     7    2   22 1
     8    3   23 1
     9    3   24 1
    10    3   25 1
    11    4    5 1
    12    4   26 1
    13    4   27 1
    14    5   10 ar
    15    5    6 ar
    16    6    7 ar
    17    6   28 1
    18    7    8 ar
    19    7   29 1
    20    8    9 ar
    21    8   11 1
    22    9   10 ar
    23    9   30 1
    24   10   31 1
    25   11   15 1
    26   11   12 2
    27   12   13 1
    28   13   14 2
    29   13   16 1
    30   14   15 1
    31   14   32 1
    32   16   17 1
    33   16   33 1
    34   16   34 1
    35   17   18 1
    36   17   35 1
    37   17   39 1
    38   18   36 1
    39   18   37 1
    40   18   38 1
@<TRIPOS>MOLECULE
ZINC41010035
   40    42     0     0     0
SMALL
USER_CHARGES

@<TRIPOS>ATOM
      1 C1         -0.0187    1.5258    0.0104 C.3       1 <0>        -0.1900
      2 C2          0.0021   -0.0041    0.0020 C.3       1 <0>        -0.0095
      3 N1          0.6897   -0.4778   -1.2066 N.4       1 <0>        -0.5088
      4 C3          0.7096   -1.9467   -1.2147 C.3       1 <0>         0.0780
      5 C4          1.4150   -2.4327   -2.4546 C.2       1 <0>        -0.0079
      6 C5          2.7379   -2.7435   -2.4078 C.2       1 <0>        -0.1859
      7 S1          3.0200   -3.2413   -4.1023 S.3       1 <0>         0.0905
      8 C6          1.3501   -2.9818   -4.6863 C.2       1 <0>         0.1887
      9 N2          0.7524   -2.5617   -3.5796 N.2       1 <0>        -0.5112
     10 C7          0.7865   -3.1862   -6.0368 C.ar      1 <0>        -0.0489
     11 C8         -0.5613   -2.9124   -6.2804 C.ar      1 <0>        -0.0553
     12 C9         -1.0854   -3.1027   -7.5392 C.ar      1 <0>        -0.1175
     13 C10        -0.2708   -3.5688   -8.5712 C.ar      1 <0>         0.0028
     14 C11         1.0752   -3.8430   -8.3288 C.ar      1 <0>        -0.1120
     15 C12         1.6025   -3.6478   -7.0720 C.ar      1 <0>        -0.0759
     16 C13        -0.8363   -3.7734   -9.9266 C.ar      1 <0>        -0.0694
     17 C14        -2.1797   -3.4954  -10.1736 C.ar      1 <0>        -0.1020
     18 C15        -2.7004   -3.6872  -11.4371 C.ar      1 <0>        -0.1183
     19 C16        -1.8920   -4.1550  -12.4575 C.ar      1 <0>        -0.1050
     20 C17        -0.5581   -4.4327  -12.2183 C.ar      1 <0>        -0.1176
     21 C18        -0.0251   -4.2391  -10.9602 C.ar      1 <0>        -0.1017
     22 H1          1.0039    1.9031    0.0027 H         1 <0>         0.0804
     23 H2         -0.5459    1.8868   -0.8726 H         1 <0>         0.0806
     24 H3         -0.5289    1.8773    0.9072 H         1 <0>         0.1081
     25 H4          0.5293   -0.3651    0.8851 H         1 <0>         0.1324
     26 H5         -1.0205   -0.3814    0.0098 H         1 <0>         0.1324
     27 H6          0.2017   -0.1436   -2.0240 H         1 <0>         0.4309
     28 H7          1.2368   -2.3077   -0.3316 H         1 <0>         0.1453
     29 H8         -0.3130   -2.3239   -1.2069 H         1 <0>         0.1446
     30 H9          3.4274   -2.7010   -1.5776 H         1 <0>         0.2096
     31 H10        -1.1922   -2.5518   -5.4814 H         1 <0>         0.1367
     32 H11        -2.1276   -2.8914   -7.7277 H         1 <0>         0.1387
     33 H12         1.7050   -4.2042   -9.1284 H         1 <0>         0.1403
     34 H13         2.6459   -3.8556   -6.8857 H         1 <0>         0.1308
     35 H14        -2.8120   -3.1308   -9.3775 H         1 <0>         0.1267
     36 H15        -3.7411   -3.4721  -11.6296 H         1 <0>         0.1287
     37 H16        -2.3039   -4.3044  -13.4446 H         1 <0>         0.1279
     38 H17         0.0684   -4.7977  -13.0188 H         1 <0>         0.1291
     39 H18         1.0176   -4.4519  -10.7756 H         1 <0>         0.1274
     40 H19         1.6363   -0.1286   -1.2138 H         1 <0>         0.4260
@<TRIPOS>BOND
     1    1    2 1
     2    1   22 1
     3    1   23 1
     4    1   24 1
     5    2    3 1
     6    2   25 1
     7    2   26 1
     8    3    4 1
     9    3   27 1
    10    3   40 1
    11    4    5 1
    12    4   28 1
    13    4   29 1
    14    5    9 1
    15    5    6 2
    16    6    7 1
    17    6   30 1
    18    7    8 1
    19    8    9 2
    20    8   10 1
    21   10   15 ar
    22   10   11 ar
    23   11   12 ar
    24   11   31 1
    25   12   13 ar
    26   12   32 1
    27   13   14 ar
    28   13   16 1
    29   14   15 ar
    30   14   33 1
    31   15   34 1
    32   16   21 ar
    33   16   17 ar
    34   17   18 ar
    35   17   35 1
    36   18   19 ar
    37   18   36 1
    38   19   20 ar
    39   19   37 1
    40   20   21 ar
    41   20   38 1
    42   21   39 1
@<TRIPOS>MOLECULE
ZINC37974076
   20    21     0     0     0
SMALL
USER_CHARGES

@<TRIPOS>ATOM
      1 C1         -0.0167    1.3790    0.0096 C.ar      1 <0>        -0.0995
      2 C2          1.1666    2.0889    0.0021 C.ar      1 <0>        -0.0824
      3 C3          2.3850    1.4096   -0.0131 C.ar      1 <0>         0.0048
      4 C4          2.3990    0.0133   -0.0207 C.ar      1 <0>        -0.0027
      5 C5          1.2068   -0.6859   -0.0131 C.ar      1 <0>        -0.0346
      6 C6          0.0021   -0.0041    0.0020 C.ar      1 <0>        -0.0818
      7 Cl1         1.2202   -2.4218   -0.0230 Cl        1 <0>        -0.0372
      8 Cl2         3.9096   -0.8419   -0.0402 Cl        1 <0>        -0.0012
      9 C7          3.6564    2.1650   -0.0217 C.2       1 <0>         0.0902
     10 N1          4.8933    1.7073   -0.0414 N.2       1 <0>        -0.4103
     11 C8          5.8942    2.5800   -0.0459 C.2       1 <0>        -0.0585
     12 C9          5.5956    3.9314   -0.0298 C.2       1 <0>        -0.2151
     13 S1          3.9127    3.9303   -0.0159 S.3       1 <0>         0.1843
     14 C10         7.2853    2.1220   -0.0671 C.2       1 <0>         0.4006
     15 O1          7.5328    0.9340   -0.0812 O.2       1 <0>        -0.4319
     16 H1         -0.9600    1.9047    0.0260 H         1 <0>         0.1495
     17 H2          1.1495    3.1688    0.0077 H         1 <0>         0.1423
     18 H3         -0.9272   -0.5544    0.0079 H         1 <0>         0.1495
     19 H4          6.2717    4.7736   -0.0302 H         1 <0>         0.2124
     20 H5          8.0908    2.8415   -0.0702 H         1 <0>         0.1216
@<TRIPOS>BOND
     1    1    6 ar
     2    1    2 ar
     3    1   16 1
     4    2    3 ar
     5    2   17 1
     6    3    4 ar
     7    3    9 1
     8    4    5 ar
     9    4    8 1
    10    5    6 ar
    11    5    7 1
    12    6   18 1
    13    9   13 1
    14    9   10 2
    15   10   11 1
    16   11   12 2
    17   11   14 1
    18   12   13 1
    19   12   19 1
    20   14   15 2
    21   14   20 1
@<TRIPOS>MOLECULE
ZINC41010024
   42    43     0     0     0
SMALL
USER_CHARGES

@<TRIPOS>ATOM
      1 C1         -0.0187    1.5258    0.0104 C.3       1 <0>        -0.1900
      2 C2          0.0021   -0.0041    0.0020 C.3       1 <0>        -0.0095
      3 N1         -1.3761   -0.5125    0.0124 N.4       1 <0>        -0.5088
      4 C3         -1.3562   -1.9814    0.0044 C.3       1 <0>         0.0781
      5 C4         -2.7700   -2.5030    0.0151 C.2       1 <0>        -0.0080
      6 C5         -3.3827   -2.8334   -1.1528 C.2       1 <0>        -0.1863
      7 S1         -4.9783   -3.3693   -0.5480 S.3       1 <0>         0.0883
      8 C6         -4.6557   -3.0954    1.1892 C.2       1 <0>         0.1911
      9 N2         -3.4098   -2.6441    1.1520 N.2       1 <0>        -0.5121
     10 C7         -5.5389   -3.3177    2.3541 C.ar      1 <0>        -0.0513
     11 C8         -5.0859   -3.0291    3.6421 C.ar      1 <0>        -0.0582
     12 C9         -5.9150   -3.2388    4.7248 C.ar      1 <0>        -0.1182
     13 C10        -7.1927   -3.7345    4.5357 C.ar      1 <0>        -0.0288
     14 C11        -7.6477   -4.0232    3.2614 C.ar      1 <0>        -0.1187
     15 C12        -6.8310   -3.8117    2.1697 C.ar      1 <0>        -0.0786
     16 C13        -8.0926   -3.9616    5.7230 C.3       1 <0>        -0.0372
     17 C14        -8.3127   -2.6372    6.4568 C.3       1 <0>        -0.1412
     18 C15        -9.4388   -4.5097    5.2452 C.3       1 <0>        -0.1499
     19 C16        -7.4400   -4.9684    6.6724 C.3       1 <0>        -0.1418
     20 H1          1.0039    1.9031    0.0027 H         1 <0>         0.1081
     21 H2         -0.5459    1.8868   -0.8726 H         1 <0>         0.0804
     22 H3         -0.5289    1.8773    0.9072 H         1 <0>         0.0806
     23 H4          0.5123   -0.3556   -0.8948 H         1 <0>         0.1324
     24 H5          0.5293   -0.3651    0.8851 H         1 <0>         0.1324
     25 H6         -1.8484   -0.1871    0.8426 H         1 <0>         0.4309
     26 H7         -0.8460   -2.3329   -0.8924 H         1 <0>         0.1452
     27 H8         -0.8290   -2.3425    0.8874 H         1 <0>         0.1445
     28 H9         -3.0096   -2.7853   -2.1651 H         1 <0>         0.2094
     29 H10        -4.0885   -2.6427    3.7910 H         1 <0>         0.1338
     30 H11        -5.5656   -3.0158    5.7221 H         1 <0>         0.1347
     31 H12        -8.6460   -4.4103    3.1205 H         1 <0>         0.1417
     32 H13        -7.1891   -4.0325    1.1751 H         1 <0>         0.1280
     33 H14        -8.7776   -1.9200    5.7804 H         1 <0>         0.0583
     34 H15        -8.9636   -2.8015    7.3156 H         1 <0>         0.0657
     35 H16        -7.3536   -2.2468    6.7972 H         1 <0>         0.0584
     36 H17        -9.2820   -5.4532    4.7224 H         1 <0>         0.0613
     37 H18       -10.0897   -4.6739    6.1039 H         1 <0>         0.0654
     38 H19        -9.9037   -3.7924    4.5688 H         1 <0>         0.0610
     39 H20        -6.4810   -4.5779    7.0128 H         1 <0>         0.0586
     40 H21        -8.0909   -5.1327    7.5312 H         1 <0>         0.0657
     41 H22        -7.2833   -5.9119    6.1496 H         1 <0>         0.0588
     42 H23        -1.8641   -0.1783   -0.8050 H         1 <0>         0.4259
@<TRIPOS>BOND
     1    1    2 1
     2    1   20 1
     3    1   21 1
     4    1   22 1
     5    2    3 1
     6    2   23 1
     7    2   24 1
     8    3    4 1
     9    3   25 1
    10    3   42 1
    11    4    5 1
    12    4   26 1
    13    4   27 1
    14    5    9 1
    15    5    6 2
    16    6    7 1
    17    6   28 1
    18    7    8 1
    19    8    9 2
    20    8   10 1
    21   10   15 ar
    22   10   11 ar
    23   11   12 ar
    24   11   29 1
    25   12   13 ar
    26   12   30 1
    27   13   14 ar
    28   13   16 1
    29   14   15 ar
    30   14   31 1
    31   15   32 1
    32   16   17 1
    33   16   18 1
    34   16   19 1
    35   17   33 1
    36   17   34 1
    37   17   35 1
    38   18   36 1
    39   18   37 1
    40   18   38 1
    41   19   39 1
    42   19   40 1
    43   19   41 1
@<TRIPOS>MOLECULE
ZINC40419300
   39    40     0     0     0
SMALL
USER_CHARGES

@<TRIPOS>ATOM
      1 C1         -0.0187    1.5258    0.0104 C.3       1 <0>        -0.1900
      2 C2          0.0021   -0.0041    0.0020 C.3       1 <0>        -0.0095
      3 N1         -1.3761   -0.5125    0.0124 N.4       1 <0>        -0.5088
      4 C3         -1.3562   -1.9814    0.0044 C.3       1 <0>         0.0780
      5 C4         -2.7700   -2.5030    0.0151 C.2       1 <0>        -0.0081
      6 C5         -3.3827   -2.8334   -1.1528 C.2       1 <0>        -0.1860
      7 S1         -4.9783   -3.3693   -0.5480 S.3       1 <0>         0.0888
      8 C6         -4.6557   -3.0954    1.1892 C.2       1 <0>         0.1906
      9 N2         -3.4098   -2.6441    1.1520 N.2       1 <0>        -0.5119
     10 C7         -5.5389   -3.3177    2.3541 C.ar      1 <0>        -0.0509
     11 C8         -5.0859   -3.0291    3.6421 C.ar      1 <0>        -0.0577
     12 C9         -5.9150   -3.2388    4.7248 C.ar      1 <0>        -0.1205
     13 C10        -7.1927   -3.7345    4.5357 C.ar      1 <0>        -0.0351
     14 C11        -7.6477   -4.0232    3.2614 C.ar      1 <0>        -0.1122
     15 C12        -6.8310   -3.8117    2.1697 C.ar      1 <0>        -0.0789
     16 C13        -8.0926   -3.9616    5.7230 C.3       1 <0>        -0.0657
     17 C14        -9.3543   -3.1085    5.5772 C.3       1 <0>        -0.1475
     18 C15        -8.4817   -5.4397    5.7928 C.3       1 <0>        -0.1480
     19 H1          1.0039    1.9031    0.0027 H         1 <0>         0.1081
     20 H2         -0.5459    1.8868   -0.8726 H         1 <0>         0.0804
     21 H3         -0.5289    1.8773    0.9072 H         1 <0>         0.0806
     22 H4          0.5123   -0.3556   -0.8948 H         1 <0>         0.1324
     23 H5          0.5293   -0.3651    0.8851 H         1 <0>         0.1325
     24 H6         -1.8484   -0.1871    0.8426 H         1 <0>         0.4309
     25 H7         -0.8460   -2.3329   -0.8924 H         1 <0>         0.1453
     26 H8         -0.8290   -2.3425    0.8874 H         1 <0>         0.1446
     27 H9         -3.0096   -2.7853   -2.1651 H         1 <0>         0.2095
     28 H10        -4.0885   -2.6427    3.7910 H         1 <0>         0.1342
     29 H11        -5.5656   -3.0158    5.7221 H         1 <0>         0.1353
     30 H12        -8.6460   -4.4103    3.1205 H         1 <0>         0.1367
     31 H13        -7.1891   -4.0325    1.1751 H         1 <0>         0.1283
     32 H14        -7.5675   -3.6806    6.6359 H         1 <0>         0.0843
     33 H15        -9.8794   -3.3895    4.6643 H         1 <0>         0.0590
     34 H16       -10.0052   -3.2727    6.4359 H         1 <0>         0.0654
     35 H17        -9.0771   -2.0555    5.5275 H         1 <0>         0.0575
     36 H18        -9.0067   -5.7207    4.8798 H         1 <0>         0.0591
     37 H19        -7.5828   -6.0475    5.8966 H         1 <0>         0.0580
     38 H20        -9.1326   -5.6039    6.6515 H         1 <0>         0.0654
     39 H21        -1.8641   -0.1783   -0.8050 H         1 <0>         0.4259
@<TRIPOS>BOND
     1    1    2 1
     2    1   19 1
     3    1   20 1
     4    1   21 1
     5    2    3 1
     6    2   22 1
     7    2   23 1
     8    3    4 1
     9    3   24 1
    10    3   39 1
    11    4    5 1
    12    4   25 1
    13    4   26 1
    14    5    9 1
    15    5    6 2
    16    6    7 1
    17    6   27 1
    18    7    8 1
    19    8    9 2
    20    8   10 1
    21   10   15 ar
    22   10   11 ar
    23   11   12 ar
    24   11   28 1
    25   12   13 ar
    26   12   29 1
    27   13   14 ar
    28   13   16 1
    29   14   15 ar
    30   14   30 1
    31   15   31 1
    32   16   17 1
    33   16   18 1
    34   16   32 1
    35   17   33 1
    36   17   34 1
    37   17   35 1
    38   18   36 1
    39   18   37 1
    40   18   38 1
@<TRIPOS>MOLECULE
ZINC40419303
   36    37     0     0     0
SMALL
USER_CHARGES

@<TRIPOS>ATOM
      1 C1         -0.0187    1.5258    0.0104 C.3       1 <0>        -0.1489
      2 C2          0.0021   -0.0041    0.0020 C.3       1 <0>        -0.0962
      3 C3          0.7074   -0.4901   -1.2379 C.ar      1 <0>        -0.0406
      4 C4         -0.0140   -0.7176   -2.3962 C.ar      1 <0>        -0.1152
      5 C5          0.6258   -1.1622   -3.5349 C.ar      1 <0>        -0.0784
      6 C6          2.0037   -1.3822   -3.5164 C.ar      1 <0>        -0.0512
      7 C7          2.7256   -1.1508   -2.3448 C.ar      1 <0>        -0.0578
      8 C8          2.0745   -0.7013   -1.2145 C.ar      1 <0>        -0.1206
      9 C9          2.6958   -1.8591   -4.7330 C.2       1 <0>         0.1904
     10 N1          3.9800   -2.1305   -4.9186 N.2       1 <0>        -0.5120
     11 C10         4.4271   -2.5494   -6.0790 C.2       1 <0>        -0.0080
     12 C11         3.5658   -2.7120   -7.1184 C.2       1 <0>        -0.1861
     13 S1          2.0247   -2.2324   -6.3477 S.3       1 <0>         0.0891
     14 C12         5.8929   -2.8494   -6.2595 C.3       1 <0>         0.0781
     15 N2          6.6093   -1.6101   -6.5895 N.4       1 <0>        -0.5088
     16 C13         8.0381   -1.9025   -6.7654 C.3       1 <0>        -0.0095
     17 C14         8.7843   -0.6118   -7.1090 C.3       1 <0>        -0.1900
     18 H1          1.0039    1.9031    0.0027 H         1 <0>         0.0570
     19 H2         -0.5459    1.8868   -0.8726 H         1 <0>         0.0577
     20 H3         -0.5289    1.8773    0.9072 H         1 <0>         0.0654
     21 H4          0.5293   -0.3651    0.8851 H         1 <0>         0.0796
     22 H5         -1.0205   -0.3814    0.0098 H         1 <0>         0.0801
     23 H6         -1.0804   -0.5473   -2.4091 H         1 <0>         0.1372
     24 H7          0.0615   -1.3398   -4.4384 H         1 <0>         0.1286
     25 H8          3.7921   -1.3195   -2.3240 H         1 <0>         0.1343
     26 H9          2.6327   -0.5175   -0.3083 H         1 <0>         0.1355
     27 H10         3.7582   -3.0428   -8.1283 H         1 <0>         0.2096
     28 H11         6.2947   -3.2666   -5.3361 H         1 <0>         0.1446
     29 H12         6.0196   -3.5688   -7.0686 H         1 <0>         0.1454
     30 H13         6.2373   -1.2240   -7.4442 H         1 <0>         0.4259
     31 H14         8.4400   -2.3197   -5.8420 H         1 <0>         0.1324
     32 H15         8.1649   -2.6219   -7.5744 H         1 <0>         0.1324
     33 H16         8.3825   -0.1947   -8.0324 H         1 <0>         0.0804
     34 H17         8.6576    0.1075   -6.3000 H         1 <0>         0.0806
     35 H18         9.8445   -0.8288   -7.2396 H         1 <0>         0.1081
     36 H19         6.4920   -0.9442   -5.8405 H         1 <0>         0.4309
@<TRIPOS>BOND
     1    1    2 1
     2    1   18 1
     3    1   19 1
     4    1   20 1
     5    2    3 1
     6    2   21 1
     7    2   22 1
     8    3    8 ar
     9    3    4 ar
    10    4    5 ar
    11    4   23 1
    12    5    6 ar
    13    5   24 1
    14    6    7 ar
    15    6    9 1
    16    7    8 ar
    17    7   25 1
    18    8   26 1
    19    9   13 1
    20    9   10 2
    21   10   11 1
    22   11   12 2
    23   11   14 1
    24   12   13 1
    25   12   27 1
    26   14   15 1
    27   14   28 1
    28   14   29 1
    29   15   16 1
    30   15   30 1
    31   15   36 1
    32   16   17 1
    33   16   31 1
    34   16   32 1
    35   17   33 1
    36   17   34 1
    37   17   35 1
@<TRIPOS>MOLECULE
ZINC03457158
   23    24     0     0     0
SMALL
USER_CHARGES
2-[2-(3-chlorophenyl)thiazol-4-yl]acetic acid
@<TRIPOS>ATOM
      1 C1         -3.4918   -1.3828    0.0288 C.ar      1 <0>        -0.1055
      2 C2         -2.4414   -0.4879    0.0285 C.ar      1 <0>        -0.0653
      3 C3         -1.1278   -0.9580    0.0077 C.ar      1 <0>         0.0163
      4 C4         -0.8846   -2.3321   -0.0020 C.ar      1 <0>        -0.0906
      5 C5         -1.9440   -3.2174    0.0033 C.ar      1 <0>        -0.0354
      6 C6         -3.2453   -2.7437    0.0187 C.ar      1 <0>        -0.1016
      7 Cl1        -1.6445   -4.9273   -0.0087 Cl        1 <0>        -0.0705
      8 C7          0.0021   -0.0041    0.0020 C.2       1 <0>         0.1360
      9 N1         -0.0159    1.3214    0.0093 N.2       1 <0>        -0.4402
     10 C8          1.0962    2.0180    0.0024 C.2       1 <0>         0.1051
     11 C9          2.2960    1.3786   -0.0125 C.2       1 <0>        -0.2052
     12 S1          1.7604   -0.3278   -0.0165 S.3       1 <0>        -0.0350
     13 C10         1.0435    3.5240    0.0105 C.3       1 <0>        -0.1024
     14 C11         0.2001    4.0034   -1.1428 C.2       1 <0>         0.4687
     15 O1         -0.3062    3.2040   -1.8942 O.co2     1 <0>        -0.6216
     16 H1         -4.5089   -1.0196    0.0411 H         1 <0>         0.1401
     17 H2         -2.6356    0.5744    0.0409 H         1 <0>         0.1470
     18 H3          0.1300   -2.7022   -0.0133 H         1 <0>         0.1363
     19 H4         -4.0710   -3.4398    0.0231 H         1 <0>         0.1358
     20 H5          3.2954    1.7878   -0.0203 H         1 <0>         0.1962
     21 H6          0.6058    3.8672    0.9480 H         1 <0>         0.0842
     22 H7          2.0530    3.9234   -0.0869 H         1 <0>         0.0826
     23 O2          0.0114    5.3183   -1.3352 O.co2     1 <0>        -0.7748
@<TRIPOS>BOND
     1    1    6 ar
     2    1    2 ar
     3    1   16 1
     4    2    3 ar
     5    2   17 1
     6    3    4 ar
     7    3    8 1
     8    4    5 ar
     9    4   18 1
    10    5    6 ar
    11    5    7 1
    12    6   19 1
    13    8   12 1
    14    8    9 2
    15    9   10 1
    16   10   11 2
    17   10   13 1
    18   11   12 1
    19   11   20 1
    20   13   14 1
    21   13   21 1
    22   13   22 1
    23   14   15 2
    24   14   23 1
@<TRIPOS>MOLECULE
ZINC70168373
   33    35     0     0     0
SMALL
USER_CHARGES

@<TRIPOS>ATOM
      1 C1         -0.0169    1.3914    0.0097 C.ar      1 <0>        -0.0536
      2 C2          1.1695    2.0947    0.0021 C.ar      1 <0>        -0.1499
      3 C3          2.3789    1.4182   -0.0135 C.ar      1 <0>         0.1386
      4 C4          2.4033    0.0326   -0.0212 C.ar      1 <0>        -0.1555
      5 C5          1.2228   -0.6804   -0.0137 C.ar      1 <0>        -0.0334
      6 C6          0.0021   -0.0041    0.0020 C.ar      1 <0>        -0.0539
      7 C7         -1.2666   -0.7632    0.0105 C.2       1 <0>         0.1826
      8 N1         -1.4625   -2.0744    0.0109 N.2       1 <0>        -0.5069
      9 C8         -2.6728   -2.5824    0.0199 C.2       1 <0>        -0.0087
     10 C9         -3.7535   -1.7580    0.0291 C.2       1 <0>        -0.1791
     11 S1         -2.9497   -0.1603    0.0311 S.3       1 <0>         0.0967
     12 C10        -2.8638   -4.0772    0.0196 C.3       1 <0>         0.0782
     13 N2         -2.8166   -4.5766   -1.3611 N.4       1 <0>        -0.5063
     14 C11        -3.0028   -6.0337   -1.3614 C.3       1 <0>         0.0830
     15 C12        -2.9544   -6.5460   -2.7779 C.2       1 <0>        -0.0149
     16 C13        -1.8076   -7.0319   -3.3182 C.2       1 <0>        -0.2034
     17 S2         -2.3729   -7.4649   -4.9556 S.3       1 <0>         0.1994
     18 C14        -3.9779   -6.9898   -4.7791 C.2       1 <0>         0.0408
     19 N3         -4.0248   -6.5480   -3.5471 N.2       1 <0>        -0.5158
     20 F1          3.5381    2.1119   -0.0217 F         1 <0>        -0.1242
     21 H1         -0.9588    1.9196    0.0260 H         1 <0>         0.1394
     22 H2          1.1559    3.1746    0.0081 H         1 <0>         0.1518
     23 H3          3.3485   -0.4898   -0.0334 H         1 <0>         0.1500
     24 H4          1.2429   -1.7602   -0.0204 H         1 <0>         0.1454
     25 H5         -4.8058   -2.0005    0.0368 H         1 <0>         0.2113
     26 H6         -2.0705   -4.5450    0.6025 H         1 <0>         0.1475
     27 H7         -3.8305   -4.3200    0.4609 H         1 <0>         0.1480
     28 H8         -3.5510   -4.1435   -1.9007 H         1 <0>         0.4296
     29 H9         -2.2095   -6.5016   -0.7785 H         1 <0>         0.1481
     30 H10        -3.9695   -6.2766   -0.9201 H         1 <0>         0.1468
     31 H11        -0.8256   -7.1294   -2.8793 H         1 <0>         0.2085
     32 H12        -4.7763   -7.0406   -5.5045 H         1 <0>         0.2307
     33 H13        -1.9218   -4.3518   -1.7696 H         1 <0>         0.4295
@<TRIPOS>BOND
     1    1    6 ar
     2    1    2 ar
     3    1   21 1
     4    2    3 ar
     5    2   22 1
     6    3    4 ar
     7    3   20 1
     8    4    5 ar
     9    4   23 1
    10    5    6 ar
    11    5   24 1
    12    6    7 1
    13    7   11 1
    14    7    8 2
    15    8    9 1
    16    9   10 2
    17    9   12 1
    18   10   11 1
    19   10   25 1
    20   12   13 1
    21   12   26 1
    22   12   27 1
    23   13   14 1
    24   13   28 1
    25   13   33 1
    26   14   15 1
    27   14   29 1
    28   14   30 1
    29   15   19 1
    30   15   16 2
    31   16   17 1
    32   16   31 1
    33   17   18 1
    34   18   19 2
    35   18   32 1
@<TRIPOS>MOLECULE
ZINC40443881
   36    38     0     0     0
SMALL
USER_CHARGES

@<TRIPOS>ATOM
      1 C1         -0.0184    1.5028    0.0103 C.3       1 <0>        -0.0761
      2 C2          0.0021   -0.0041    0.0020 C.2       1 <0>         0.0714
      3 N1         -1.0131   -0.8316    0.0019 N.2       1 <0>        -0.5228
      4 C3         -0.8336   -2.1374   -0.0059 C.2       1 <0>        -0.0067
      5 C4          0.4492   -2.5821   -0.0139 C.2       1 <0>        -0.2101
      6 S1          1.3350   -1.0316   -0.0168 S.3       1 <0>         0.1898
      7 C5         -1.9989   -3.0929   -0.0056 C.3       1 <0>         0.0831
      8 N2         -2.4479   -3.3171    1.3750 N.4       1 <0>        -0.5062
      9 C6         -3.5838   -4.2486    1.3754 C.3       1 <0>         0.0781
     10 C7         -4.0444   -4.4785    2.7917 C.2       1 <0>        -0.0086
     11 C8         -5.0697   -3.7460    3.3015 C.2       1 <0>        -0.1790
     12 S2         -5.1728   -4.4265    4.9522 S.3       1 <0>         0.0964
     13 C9         -3.8425   -5.6092    4.7835 C.2       1 <0>         0.1825
     14 N3         -3.4598   -5.3901    3.5333 N.2       1 <0>        -0.5067
     15 C10        -3.3149   -6.5752    5.7707 C.ar      1 <0>        -0.0537
     16 C11        -2.2525   -7.4140    5.4309 C.ar      1 <0>        -0.0334
     17 C12        -1.7642   -8.3133    6.3555 C.ar      1 <0>        -0.1555
     18 C13        -2.3270   -8.3853    7.6199 C.ar      1 <0>         0.1385
     19 C14        -3.3822   -7.5547    7.9625 C.ar      1 <0>        -0.1498
     20 C15        -3.8739   -6.6475    7.0475 C.ar      1 <0>        -0.0537
     21 F1         -1.8456   -9.2687    8.5217 F         1 <0>        -0.1243
     22 H1          1.0042    1.8801    0.0026 H         1 <0>         0.0938
     23 H2         -0.5455    1.8639   -0.8728 H         1 <0>         0.1006
     24 H3         -0.5286    1.8543    0.9071 H         1 <0>         0.0990
     25 H4          0.8286   -3.5932   -0.0206 H         1 <0>         0.2073
     26 H5         -2.8162   -2.6694   -0.5892 H         1 <0>         0.1464
     27 H6         -1.6912   -4.0413   -0.4460 H         1 <0>         0.1479
     28 H7         -1.6913   -3.7091    1.9153 H         1 <0>         0.4294
     29 H8         -4.4011   -3.8250    0.7917 H         1 <0>         0.1478
     30 H9         -3.2761   -5.1969    0.9349 H         1 <0>         0.1474
     31 H10        -5.6587   -2.9682    2.8382 H         1 <0>         0.2112
     32 H11        -1.8137   -7.3592    4.4456 H         1 <0>         0.1454
     33 H12        -0.9421   -8.9629    6.0936 H         1 <0>         0.1500
     34 H13        -3.8172   -7.6149    8.9492 H         1 <0>         0.1518
     35 H14        -4.6931   -5.9973    7.3170 H         1 <0>         0.1394
     36 H15        -2.7327   -2.4392    1.7828 H         1 <0>         0.4294
@<TRIPOS>BOND
     1    1    2 1
     2    1   22 1
     3    1   23 1
     4    1   24 1
     5    2    6 1
     6    2    3 2
     7    3    4 1
     8    4    5 2
     9    4    7 1
    10    5    6 1
    11    5   25 1
    12    7    8 1
    13    7   26 1
    14    7   27 1
    15    8    9 1
    16    8   28 1
    17    8   36 1
    18    9   10 1
    19    9   29 1
    20    9   30 1
    21   10   14 1
    22   10   11 2
    23   11   12 1
    24   11   31 1
    25   12   13 1
    26   13   14 2
    27   13   15 1
    28   15   20 ar
    29   15   16 ar
    30   16   17 ar
    31   16   32 1
    32   17   18 ar
    33   17   33 1
    34   18   19 ar
    35   18   21 1
    36   19   20 ar
    37   19   34 1
    38   20   35 1
@<TRIPOS>MOLECULE
ZINC35163465
   33    34     0     0     0
SMALL
USER_CHARGES

@<TRIPOS>ATOM
      1 C1         -0.0187    1.5258    0.0104 C.3       1 <0>        -0.1566
      2 C2          0.0021   -0.0041    0.0020 C.3       1 <0>        -0.1515
      3 C3          0.7421   -0.5109    1.2415 C.3       1 <0>        -0.0103
      4 N1          0.7620   -1.9797    1.2335 N.4       1 <0>        -0.5085
      5 C4          1.4725   -2.4664    2.4236 C.3       1 <0>         0.0780
      6 C5          1.4929   -3.9732    2.4153 C.2       1 <0>        -0.0089
      7 C6          2.5658   -4.6367    1.9089 C.2       1 <0>        -0.1817
      8 S1          2.0514   -6.3319    2.1543 S.3       1 <0>         0.0970
      9 C7          0.4677   -5.9728    2.9026 C.2       1 <0>         0.1840
     10 N2          0.4771   -4.6471    2.9020 N.2       1 <0>        -0.5080
     11 C8         -0.5703   -6.9035    3.3945 C.ar      1 <0>        -0.0550
     12 C9         -1.7522   -6.4064    3.9457 C.ar      1 <0>        -0.0331
     13 C10        -2.7173   -7.2790    4.4032 C.ar      1 <0>        -0.1555
     14 C11        -2.5148   -8.6473    4.3167 C.ar      1 <0>         0.1392
     15 C12        -1.3430   -9.1462    3.7703 C.ar      1 <0>        -0.1499
     16 C13        -0.3742   -8.2824    3.3042 C.ar      1 <0>        -0.0533
     17 F1         -3.4630   -9.4978    4.7671 F         1 <0>        -0.1240
     18 H1          1.0039    1.9031    0.0027 H         1 <0>         0.0675
     19 H2         -0.5459    1.8868   -0.8726 H         1 <0>         0.0777
     20 H3         -0.5289    1.8773    0.9072 H         1 <0>         0.0677
     21 H4         -1.0205   -0.3814    0.0098 H         1 <0>         0.0863
     22 H5          0.5123   -0.3556   -0.8948 H         1 <0>         0.0861
     23 H6          1.7647   -0.1336    1.2338 H         1 <0>         0.1331
     24 H7          0.2319   -0.1594    2.1383 H         1 <0>         0.1332
     25 H8         -0.1846   -2.3290    1.2406 H         1 <0>         0.4311
     26 H9          2.4951   -2.0891    2.4158 H         1 <0>         0.1459
     27 H10         0.9623   -2.1149    3.3204 H         1 <0>         0.1452
     28 H11         3.4764   -4.2479    1.4776 H         1 <0>         0.2108
     29 H12        -1.9107   -5.3403    4.0142 H         1 <0>         0.1453
     30 H13        -3.6322   -6.8954    4.8299 H         1 <0>         0.1502
     31 H14        -1.1902  -10.2134    3.7052 H         1 <0>         0.1520
     32 H15         0.5365   -8.6722    2.8741 H         1 <0>         0.1394
     33 H16         1.2343   -2.3051    0.4033 H         1 <0>         0.4262
@<TRIPOS>BOND
     1    1    2 1
     2    1   18 1
     3    1   19 1
     4    1   20 1
     5    2    3 1
     6    2   21 1
     7    2   22 1
     8    3    4 1
     9    3   23 1
    10    3   24 1
    11    4    5 1
    12    4   25 1
    13    4   33 1
    14    5    6 1
    15    5   26 1
    16    5   27 1
    17    6   10 1
    18    6    7 2
    19    7    8 1
    20    7   28 1
    21    8    9 1
    22    9   10 2
    23    9   11 1
    24   11   16 ar
    25   11   12 ar
    26   12   13 ar
    27   12   29 1
    28   13   14 ar
    29   13   30 1
    30   14   15 ar
    31   14   17 1
    32   15   16 ar
    33   15   31 1
    34   16   32 1
@<TRIPOS>MOLECULE
ZINC70848952
   23    24     0     0     0
SMALL
USER_CHARGES

@<TRIPOS>ATOM
      1 C1         -0.0184    1.5028    0.0103 C.3       1 <0>        -0.1855
      2 C2          0.0021   -0.0041    0.0020 C.2       1 <0>         0.4284
      3 O1          1.0611   -0.5965   -0.0113 O.2       1 <0>        -0.4528
      4 C3         -1.2564   -0.7537    0.0100 C.2       1 <0>        -0.0461
      5 C4         -1.2542   -2.1378    0.0079 C.2       1 <0>        -0.1971
      6 S1         -2.8972   -2.5025    0.0199 S.3       1 <0>         0.1964
      7 C5         -3.5308   -0.8350    0.0273 C.2       1 <0>         0.0932
      8 N1         -2.4228   -0.1195    0.0250 N.2       1 <0>        -0.4335
      9 C6         -4.9362   -0.3738    0.0388 C.ar      1 <0>         0.0164
     10 C7         -5.2253    0.9910    0.0367 C.ar      1 <0>        -0.0621
     11 C8         -6.5393    1.4158    0.0470 C.ar      1 <0>        -0.0228
     12 C9         -7.5687    0.4902    0.0598 C.ar      1 <0>        -0.0855
     13 C10        -7.2879   -0.8654    0.0619 C.ar      1 <0>        -0.0202
     14 C11        -5.9778   -1.3019    0.0459 C.ar      1 <0>        -0.0856
     15 Cl1        -8.5852   -2.0189    0.0785 Cl        1 <0>        -0.0419
     16 Cl2        -6.9010    3.1137    0.0445 Cl        1 <0>        -0.0417
     17 H1          1.0042    1.8801    0.0026 H         1 <0>         0.0838
     18 H2         -0.5455    1.8639   -0.8728 H         1 <0>         0.0962
     19 H3         -0.5286    1.8543    0.9071 H         1 <0>         0.0962
     20 H4         -0.4113   -2.8130    0.0001 H         1 <0>         0.2119
     21 H5         -4.4230    1.7140    0.0275 H         1 <0>         0.1546
     22 H6         -8.5948    0.8270    0.0685 H         1 <0>         0.1523
     23 H7         -5.7599   -2.3597    0.0430 H         1 <0>         0.1454
@<TRIPOS>BOND
     1    1    2 1
     2    1   17 1
     3    1   18 1
     4    1   19 1
     5    2    3 2
     6    2    4 1
     7    4    8 1
     8    4    5 2
     9    5    6 1
    10    5   20 1
    11    6    7 1
    12    7    8 2
    13    7    9 1
    14    9   14 ar
    15    9   10 ar
    16   10   11 ar
    17   10   21 1
    18   11   12 ar
    19   11   16 1
    20   12   13 ar
    21   12   22 1
    22   13   14 ar
    23   13   15 1
    24   14   23 1
@<TRIPOS>MOLECULE
ZINC40999758
   34    35     0     0     0
SMALL
USER_CHARGES

@<TRIPOS>ATOM
      1 C1         -0.2925    1.2728   -0.1839 C.3       1 <0>        -0.1843
      2 C2         -0.0341   -0.2288   -0.0449 C.3       1 <0>         0.0741
      3 C3          0.7810   -0.7191   -1.2433 C.3       1 <0>        -0.1523
      4 O1          0.6932   -0.4774    1.1597 O.3       1 <0>        -0.3009
      5 C4         -0.0304   -0.5997    2.3030 C.ar      1 <0>         0.1763
      6 C5         -1.4007   -0.3754    2.2826 C.ar      1 <0>        -0.2112
      7 C6         -2.1383   -0.4984    3.4405 C.ar      1 <0>        -0.0370
      8 C7         -1.5061   -0.8490    4.6347 C.ar      1 <0>        -0.0901
      9 C8         -0.1284   -1.0736    4.6511 C.ar      1 <0>        -0.0187
     10 C9          0.6014   -0.9541    3.4879 C.ar      1 <0>        -0.1576
     11 C10        -2.2933   -0.9815    5.8788 C.2       1 <0>         0.2005
     12 N1         -1.8882   -1.2958    7.1015 N.2       1 <0>        -0.5174
     13 C11        -2.7350   -1.3683    8.1021 C.2       1 <0>        -0.0097
     14 C12        -4.0543   -1.1185    7.8924 C.2       1 <0>        -0.1888
     15 S1         -4.0471   -0.7534    6.1416 S.3       1 <0>         0.0820
     16 C13        -2.2450   -1.7284    9.4809 C.3       1 <0>         0.0794
     17 N2         -2.1823   -3.1902    9.6120 N.4       1 <0>        -0.6348
     18 H1          0.6590    1.8036   -0.2179 H         1 <0>         0.0722
     19 H2         -0.8473    1.4625   -1.1028 H         1 <0>         0.0787
     20 H3         -0.8732    1.6222    0.6698 H         1 <0>         0.0626
     21 H4         -0.9856   -0.7595   -0.0110 H         1 <0>         0.0778
     22 H5          1.7324   -0.1884   -1.2772 H         1 <0>         0.0710
     23 H6          0.9650   -1.7889   -1.1442 H         1 <0>         0.0675
     24 H7          0.2262   -0.5294   -2.1621 H         1 <0>         0.0828
     25 H8         -1.8891   -0.1039    1.3584 H         1 <0>         0.1446
     26 H9         -3.2040   -0.3235    3.4240 H         1 <0>         0.1313
     27 H10         0.3643   -1.3446    5.5731 H         1 <0>         0.1416
     28 H11         1.6666   -1.1320    3.4988 H         1 <0>         0.1449
     29 H12        -4.8783   -1.1330    8.5904 H         1 <0>         0.2090
     30 H13        -1.2517   -1.3069    9.6351 H         1 <0>         0.1469
     31 H14        -2.9303   -1.3258   10.2268 H         1 <0>         0.1476
     32 H15        -3.1018   -3.5804    9.4693 H         1 <0>         0.4336
     33 H16        -1.5479   -3.5629    8.9215 H         1 <0>         0.4384
     34 H17        -1.8541   -3.4314   10.5352 H         1 <0>         0.4400
@<TRIPOS>BOND
     1    1    2 1
     2    1   18 1
     3    1   19 1
     4    1   20 1
     5    2    3 1
     6    2    4 1
     7    2   21 1
     8    3   22 1
     9    3   23 1
    10    3   24 1
    11    4    5 1
    12    5   10 ar
    13    5    6 ar
    14    6    7 ar
    15    6   25 1
    16    7    8 ar
    17    7   26 1
    18    8    9 ar
    19    8   11 1
    20    9   10 ar
    21    9   27 1
    22   10   28 1
    23   11   15 1
    24   11   12 2
    25   12   13 1
    26   13   14 2
    27   13   16 1
    28   14   15 1
    29   14   29 1
    30   16   17 1
    31   16   30 1
    32   16   31 1
    33   17   32 1
    34   17   33 1
    35   17   34 1
@<TRIPOS>MOLECULE
ZINC11956037
   27    28     0     0     0
SMALL
USER_CHARGES
2-[2-(4-chlorophenyl)thiazol-4-yl]ethanamine
@<TRIPOS>ATOM
      1 C1         -0.0126    1.0758    0.0080 C.ar      1 <0>        -0.0738
      2 C2         -1.2156    1.7506    0.0173 C.ar      1 <0>        -0.1054
      3 C3         -1.2359    3.1351    0.0293 C.ar      1 <0>        -0.0103
      4 C4         -0.0503    3.8504    0.0223 C.ar      1 <0>        -0.1116
      5 C5          1.1588    3.1866    0.0076 C.ar      1 <0>        -0.0549
      6 C6          1.1856    1.7913    0.0004 C.ar      1 <0>        -0.0297
      7 C7          2.4784    1.0739   -0.0158 C.2       1 <0>         0.1699
      8 N1          3.7111    1.5615   -0.0250 N.2       1 <0>        -0.5095
      9 C8          4.7571    0.7690   -0.0392 C.2       1 <0>         0.0403
     10 C9          4.5854   -0.5795   -0.0448 C.2       1 <0>        -0.1937
     11 S1          2.8002   -0.6849   -0.0204 S.3       1 <0>         0.0662
     12 C10         6.1463    1.3530   -0.0498 C.3       1 <0>        -0.0702
     13 C11         6.2842    2.3198   -1.2276 C.3       1 <0>         0.0014
     14 Cl1        -2.7538    3.9774    0.0465 Cl        1 <0>        -0.0470
     15 H1          0.0021   -0.0041    0.0020 H         1 <0>         0.1384
     16 H2         -2.1435    1.1979    0.0187 H         1 <0>         0.1480
     17 H3         -0.0722    4.9302    0.0279 H         1 <0>         0.1457
     18 H4          2.0829    3.7456    0.0014 H         1 <0>         0.1424
     19 H5          5.3227   -1.3686   -0.0566 H         1 <0>         0.2040
     20 H6          6.3222    1.8890    0.8828 H         1 <0>         0.1017
     21 H7          6.8770    0.5505   -0.1510 H         1 <0>         0.1024
     22 H8          6.1082    1.7837   -2.1602 H         1 <0>         0.1339
     23 H9          5.5535    3.1222   -1.1264 H         1 <0>         0.1399
     24 H10         8.3364    2.1610   -1.2661 H         1 <0>         0.4364
     25 H11         7.7547    3.5314   -2.0073 H         1 <0>         0.4418
     26 N2          7.6382    2.9010   -1.2157 N.4       1 <0>        -0.6465
     27 H12         7.7714    3.4285   -0.3449 H         1 <0>         0.4404
@<TRIPOS>BOND
     1    1    6 ar
     2    1    2 ar
     3    1   15 1
     4    2    3 ar
     5    2   16 1
     6    3    4 ar
     7    3   14 1
     8    4    5 ar
     9    4   17 1
    10    5    6 ar
    11    5   18 1
    12    6    7 1
    13    7   11 1
    14    7    8 2
    15    8    9 1
    16    9   10 2
    17    9   12 1
    18   10   11 1
    19   10   19 1
    20   12   13 1
    21   12   20 1
    22   12   21 1
    23   13   22 1
    24   13   23 1
    25   13   26 1
    26   24   26 1
    27   25   26 1
    28   26   27 1
@<TRIPOS>MOLECULE
ZINC40999608
   33    34     0     0     0
SMALL
USER_CHARGES

@<TRIPOS>ATOM
      1 C1         -0.0187    1.5258    0.0104 C.3       1 <0>        -0.1901
      2 C2          0.0021   -0.0041    0.0020 C.3       1 <0>        -0.0095
      3 N1         -1.3761   -0.5125    0.0124 N.4       1 <0>        -0.5090
      4 C3         -1.3562   -1.9814    0.0044 C.3       1 <0>         0.0782
      5 C4         -2.7700   -2.5030    0.0151 C.2       1 <0>        -0.0101
      6 C5         -3.3827   -2.8334   -1.1528 C.2       1 <0>        -0.1805
      7 S1         -4.9783   -3.3693   -0.5480 S.3       1 <0>         0.1003
      8 C6         -4.6557   -3.0954    1.1892 C.2       1 <0>         0.1810
      9 N2         -3.4098   -2.6442    1.1520 N.2       1 <0>        -0.5042
     10 C7         -5.5390   -3.3175    2.3542 C.ar      1 <0>        -0.0196
     11 C8         -5.0857   -3.0287    3.6422 C.ar      1 <0>        -0.0686
     12 C9         -5.9136   -3.2377    4.7258 C.ar      1 <0>        -0.0935
     13 C10        -7.1918   -3.7326    4.5388 C.ar      1 <0>        -0.0802
     14 C11        -7.6490   -4.0217    3.2633 C.ar      1 <0>         0.1047
     15 C12        -6.8306   -3.8110    2.1695 C.ar      1 <0>        -0.1181
     16 F1         -8.8982   -4.5052    3.0879 F         1 <0>        -0.1246
     17 C13        -8.0903   -3.9588    5.7274 C.3       1 <0>        -0.1273
     18 H1          1.0039    1.9031    0.0027 H         1 <0>         0.1083
     19 H2         -0.5459    1.8868   -0.8726 H         1 <0>         0.0805
     20 H3         -0.5289    1.8773    0.9072 H         1 <0>         0.0807
     21 H4          0.5123   -0.3556   -0.8948 H         1 <0>         0.1325
     22 H5          0.5293   -0.3651    0.8851 H         1 <0>         0.1327
     23 H6         -1.8484   -0.1871    0.8426 H         1 <0>         0.4310
     24 H7         -0.8460   -2.3329   -0.8924 H         1 <0>         0.1460
     25 H8         -0.8290   -2.3425    0.8874 H         1 <0>         0.1454
     26 H9         -3.0096   -2.7853   -2.1651 H         1 <0>         0.2113
     27 H10        -4.0880   -2.6426    3.7905 H         1 <0>         0.1423
     28 H11        -5.5628   -3.0146    5.7226 H         1 <0>         0.1474
     29 H12        -7.1887   -4.0321    1.1749 H         1 <0>         0.1415
     30 H13        -8.6653   -3.0542    5.9254 H         1 <0>         0.0855
     31 H14        -8.7713   -4.7833    5.5164 H         1 <0>         0.0784
     32 H15        -7.4842   -4.2023    6.5999 H         1 <0>         0.0816
     33 H16        -1.8641   -0.1783   -0.8050 H         1 <0>         0.4260
@<TRIPOS>BOND
     1    1    2 1
     2    1   18 1
     3    1   19 1
     4    1   20 1
     5    2    3 1
     6    2   21 1
     7    2   22 1
     8    3    4 1
     9    3   23 1
    10    3   33 1
    11    4    5 1
    12    4   24 1
    13    4   25 1
    14    5    9 1
    15    5    6 2
    16    6    7 1
    17    6   26 1
    18    7    8 1
    19    8    9 2
    20    8   10 1
    21   10   15 ar
    22   10   11 ar
    23   11   12 ar
    24   11   27 1
    25   12   13 ar
    26   12   28 1
    27   13   14 ar
    28   13   17 1
    29   14   15 ar
    30   14   16 1
    31   15   29 1
    32   17   30 1
    33   17   31 1
    34   17   32 1
@<TRIPOS>MOLECULE
ZINC70840242
   27    28     0     0     0
SMALL
USER_CHARGES

@<TRIPOS>ATOM
      1 C1         -0.0187    1.5258    0.0104 C.3       1 <0>        -0.1782
      2 C2          0.0021   -0.0041    0.0020 C.3       1 <0>         0.1173
      3 H1         -1.0205   -0.3814    0.0098 H         1 <0>         0.1546
      4 C3          0.7309   -0.5033    1.2229 C.2       1 <0>        -0.0103
      5 C4          0.1264   -1.3836    2.0644 C.2       1 <0>        -0.1686
      6 S1          1.4145   -1.6119    3.2840 S.3       1 <0>         0.1206
      7 C5          2.6140   -0.5131    2.5418 C.2       1 <0>         0.1669
      8 N1          1.9522   -0.0933    1.4727 N.2       1 <0>        -0.5025
      9 C6          3.9789   -0.1694    2.9955 C.ar      1 <0>         0.0242
     10 C7          4.7556    0.7275    2.2614 C.ar      1 <0>        -0.1162
     11 C8          6.0304    1.0456    2.6902 C.ar      1 <0>         0.1396
     12 C9          6.5374    0.4753    3.8463 C.ar      1 <0>        -0.1627
     13 C10         5.7707   -0.4162    4.5788 C.ar      1 <0>         0.1463
     14 C11         4.4923   -0.7365    4.1623 C.ar      1 <0>        -0.1368
     15 F1          6.2713   -0.9692    5.7051 F         1 <0>        -0.1156
     16 F2          6.7835    1.9139    1.9803 F         1 <0>        -0.1179
     17 N2          0.6897   -0.4778   -1.2066 N.4       1 <0>        -0.6344
     18 H2          1.0039    1.9031    0.0027 H         1 <0>         0.0902
     19 H3         -0.5459    1.8868   -0.8726 H         1 <0>         0.0874
     20 H4         -0.5289    1.8773    0.9072 H         1 <0>         0.1043
     21 H5         -0.8588   -1.8229    2.0114 H         1 <0>         0.2137
     22 H6          4.3615    1.1721    1.3595 H         1 <0>         0.1543
     23 H7          7.5342    0.7263    4.1777 H         1 <0>         0.1627
     24 H8          3.8935   -1.4278    4.7367 H         1 <0>         0.1496
     25 H9          0.7033   -1.4867   -1.2121 H         1 <0>         0.4350
     26 H10         0.2017   -0.1436   -2.0240 H         1 <0>         0.4382
     27 H11         1.6363   -0.1286   -1.2138 H         1 <0>         0.4382
@<TRIPOS>BOND
     1    1    2 1
     2    1   18 1
     3    1   19 1
     4    1   20 1
     5    2    3 1
     6    2    4 1
     7    2   17 1
     8    4    8 1
     9    4    5 2
    10    5    6 1
    11    5   21 1
    12    6    7 1
    13    7    8 2
    14    7    9 1
    15    9   14 ar
    16    9   10 ar
    17   10   11 ar
    18   10   22 1
    19   11   12 ar
    20   11   16 1
    21   12   13 ar
    22   12   23 1
    23   13   14 ar
    24   13   15 1
    25   14   24 1
    26   17   25 1
    27   17   26 1
    28   17   27 1
@<TRIPOS>MOLECULE
ZINC70840235
   27    28     0     0     0
SMALL
USER_CHARGES

@<TRIPOS>ATOM
      1 C1         -0.0187    1.5258    0.0104 C.3       1 <0>        -0.1757
      2 C2          0.0021   -0.0041    0.0020 C.3       1 <0>         0.1095
      3 H1          0.5123   -0.3556   -0.8948 H         1 <0>         0.1590
      4 C3          0.7309   -0.5033    1.2229 C.2       1 <0>         0.0381
      5 C4          0.1264   -1.3836    2.0644 C.2       1 <0>        -0.2539
      6 S1          1.4145   -1.6119    3.2840 S.3       1 <0>         0.1281
      7 C5          2.6140   -0.5131    2.5418 C.2       1 <0>         0.1813
      8 N1          1.9522   -0.0933    1.4727 N.2       1 <0>        -0.4894
      9 C6          3.9789   -0.1694    2.9955 C.ar      1 <0>         0.0197
     10 C7          4.7556    0.7275    2.2614 C.ar      1 <0>        -0.1112
     11 C8          6.0304    1.0456    2.6902 C.ar      1 <0>         0.1398
     12 C9          6.5374    0.4753    3.8463 C.ar      1 <0>        -0.1602
     13 C10         5.7707   -0.4162    4.5788 C.ar      1 <0>         0.1444
     14 C11         4.4923   -0.7365    4.1623 C.ar      1 <0>        -0.1352
     15 F1          6.2713   -0.9692    5.7051 F         1 <0>        -0.1159
     16 F2          6.7835    1.9139    1.9803 F         1 <0>        -0.1169
     17 N2         -1.3761   -0.5125    0.0124 N.4       1 <0>        -0.6352
     18 H2          1.0039    1.9031    0.0027 H         1 <0>         0.1154
     19 H3         -0.5459    1.8868   -0.8726 H         1 <0>         0.0892
     20 H4         -0.5289    1.8773    0.9072 H         1 <0>         0.0812
     21 H5         -0.8588   -1.8229    2.0114 H         1 <0>         0.2011
     22 H6          4.3615    1.1721    1.3595 H         1 <0>         0.1574
     23 H7          7.5342    0.7263    4.1777 H         1 <0>         0.1632
     24 H8          3.8935   -1.4278    4.7367 H         1 <0>         0.1492
     25 H9         -1.8641   -0.1783   -0.8050 H         1 <0>         0.4449
     26 H10        -1.3624   -1.5214    0.0069 H         1 <0>         0.4369
     27 H11        -1.8484   -0.1871    0.8426 H         1 <0>         0.4352
@<TRIPOS>BOND
     1    1    2 1
     2    1   18 1
     3    1   19 1
     4    1   20 1
     5    2    3 1
     6    2    4 1
     7    2   17 1
     8    4    8 1
     9    4    5 2
    10    5    6 1
    11    5   21 1
    12    6    7 1
    13    7    8 2
    14    7    9 1
    15    9   14 ar
    16    9   10 ar
    17   10   11 ar
    18   10   22 1
    19   11   12 ar
    20   11   16 1
    21   12   13 ar
    22   12   23 1
    23   13   14 ar
    24   13   15 1
    25   14   24 1
    26   17   25 1
    27   17   26 1
    28   17   27 1
@<TRIPOS>MOLECULE
ZINC62606603
   27    28     0     0     0
SMALL
USER_CHARGES

@<TRIPOS>ATOM
      1 C1         -0.0167    1.3792    0.0096 C.ar      1 <0>        -0.1090
      2 C2          1.1661    2.0896    0.0021 C.ar      1 <0>        -0.0575
      3 C3          2.3851    1.4109   -0.0132 C.ar      1 <0>        -0.0526
      4 C4          2.3996    0.0135   -0.0208 C.ar      1 <0>         0.1561
      5 C5          1.2064   -0.6861   -0.0132 C.ar      1 <0>        -0.0797
      6 C6          0.0021   -0.0041    0.0020 C.ar      1 <0>        -0.0543
      7 Cl1         1.2194   -2.4221   -0.0227 Cl        1 <0>        -0.0306
      8 F1          3.5752   -0.6520   -0.0361 F         1 <0>        -0.1082
      9 C7          3.6557    2.1666   -0.0217 C.2       1 <0>         0.1592
     10 N1          4.9024    1.7162   -0.0416 N.2       1 <0>        -0.4962
     11 C8          5.9243    2.5399   -0.0468 C.2       1 <0>         0.0402
     12 C9          5.7124    3.8825   -0.0317 C.2       1 <0>        -0.1897
     13 S1          3.9247    3.9342   -0.0160 S.3       1 <0>         0.0777
     14 C10         7.3304    1.9980   -0.0691 C.3       1 <0>        -0.0692
     15 C11         7.5230    1.0316    1.1013 C.3       1 <0>        -0.0040
     16 N2          8.8936    0.5034    1.0796 N.4       1 <0>        -0.6370
     17 H1         -0.9601    1.9047    0.0260 H         1 <0>         0.1552
     18 H2          1.1485    3.1694    0.0078 H         1 <0>         0.1455
     19 H3         -0.9272   -0.5543    0.0083 H         1 <0>         0.1556
     20 H4          6.4257    4.6933   -0.0332 H         1 <0>         0.2058
     21 H5          7.5018    1.4709   -1.0076 H         1 <0>         0.1027
     22 H6          8.0387    2.8218    0.0196 H         1 <0>         0.1030
     23 H7          7.3516    1.5587    2.0398 H         1 <0>         0.1330
     24 H8          6.8147    0.2078    1.0126 H         1 <0>         0.1431
     25 H9          9.0523    0.0154    0.2108 H         1 <0>         0.4364
     26 H10         9.5493    1.2659    1.1617 H         1 <0>         0.4342
     27 H11         9.0207   -0.1340    1.8514 H         1 <0>         0.4401
@<TRIPOS>BOND
     1    1    6 ar
     2    1    2 ar
     3    1   17 1
     4    2    3 ar
     5    2   18 1
     6    3    4 ar
     7    3    9 1
     8    4    5 ar
     9    4    8 1
    10    5    6 ar
    11    5    7 1
    12    6   19 1
    13    9   13 1
    14    9   10 2
    15   10   11 1
    16   11   12 2
    17   11   14 1
    18   12   13 1
    19   12   20 1
    20   14   15 1
    21   14   21 1
    22   14   22 1
    23   15   16 1
    24   15   23 1
    25   15   24 1
    26   16   25 1
    27   16   26 1
    28   16   27 1
@<TRIPOS>MOLECULE
ZINC43388149
   30    31     0     0     0
SMALL
USER_CHARGES

@<TRIPOS>ATOM
      1 C1         -0.0187    1.5258    0.0104 C.3       1 <0>        -0.1902
      2 C2          0.0021   -0.0041    0.0020 C.3       1 <0>        -0.0095
      3 N1          0.6897   -0.4778   -1.2066 N.4       1 <0>        -0.5092
      4 C3          0.7096   -1.9467   -1.2147 C.3       1 <0>         0.0778
      5 C4          1.4150   -2.4327   -2.4546 C.2       1 <0>        -0.0121
      6 C5          2.7377   -2.7436   -2.4078 C.2       1 <0>        -0.1744
      7 S1          3.0194   -3.2420   -4.1022 S.3       1 <0>         0.1185
      8 C6          1.3494   -2.9826   -4.6859 C.2       1 <0>         0.1673
      9 N2          0.7523   -2.5617   -3.5798 N.2       1 <0>        -0.4961
     10 C7          0.7851   -3.1876   -6.0373 C.ar      1 <0>         0.0237
     11 C8         -0.5610   -2.9147   -6.2827 C.ar      1 <0>        -0.1150
     12 C9         -1.0832   -3.1076   -7.5477 C.ar      1 <0>         0.1396
     13 C10        -0.2727   -3.5715   -8.5709 C.ar      1 <0>        -0.1625
     14 C11         1.0643   -3.8445   -8.3326 C.ar      1 <0>         0.1455
     15 C12         1.5982   -3.6492   -7.0729 C.ar      1 <0>        -0.1367
     16 F1          1.8491   -4.2971   -9.3348 F         1 <0>        -0.1159
     17 F2         -2.3864   -2.8437   -7.7866 F         1 <0>        -0.1178
     18 H1          1.0039    1.9031    0.0027 H         1 <0>         0.0806
     19 H2         -0.5459    1.8868   -0.8726 H         1 <0>         0.0808
     20 H3         -0.5289    1.8773    0.9072 H         1 <0>         0.1085
     21 H4          0.5293   -0.3651    0.8851 H         1 <0>         0.1328
     22 H5         -1.0205   -0.3814    0.0098 H         1 <0>         0.1329
     23 H6          0.2017   -0.1436   -2.0240 H         1 <0>         0.4312
     24 H7          1.2368   -2.3077   -0.3316 H         1 <0>         0.1470
     25 H8         -0.3130   -2.3239   -1.2069 H         1 <0>         0.1461
     26 H9          3.4273   -2.7010   -1.5777 H         1 <0>         0.2135
     27 H10        -1.1938   -2.5536   -5.4854 H         1 <0>         0.1553
     28 H11        -0.6849   -3.7212   -9.5579 H         1 <0>         0.1627
     29 H12         2.6419   -3.8577   -6.8893 H         1 <0>         0.1495
     30 H13         1.6363   -0.1286   -1.2138 H         1 <0>         0.4262
@<TRIPOS>BOND
     1    1    2 1
     2    1   18 1
     3    1   19 1
     4    1   20 1
     5    2    3 1
     6    2   21 1
     7    2   22 1
     8    3    4 1
     9    3   23 1
    10    3   30 1
    11    4    5 1
    12    4   24 1
    13    4   25 1
    14    5    9 1
    15    5    6 2
    16    6    7 1
    17    6   26 1
    18    7    8 1
    19    8    9 2
    20    8   10 1
    21   10   15 ar
    22   10   11 ar
    23   11   12 ar
    24   11   27 1
    25   12   13 ar
    26   12   17 1
    27   13   14 ar
    28   13   28 1
    29   14   15 ar
    30   14   16 1
    31   15   29 1
@<TRIPOS>MOLECULE
ZINC95081697
   28    30     0     0     0
SMALL
USER_CHARGES

@<TRIPOS>ATOM
      1 C1         -0.0167    1.3789    0.0096 C.ar      1 <0>        -0.1023
      2 C2          1.1669    2.0883    0.0021 C.ar      1 <0>        -0.0872
      3 C3          2.3851    1.4080   -0.0131 C.ar      1 <0>        -0.0058
      4 C4          2.3983    0.0126   -0.0207 C.ar      1 <0>        -0.0627
      5 C5          1.2074   -0.6859   -0.0131 C.ar      1 <0>        -0.0366
      6 C6          0.0021   -0.0041    0.0020 C.ar      1 <0>        -0.0895
      7 Cl1         1.2209   -2.4218   -0.0225 Cl        1 <0>        -0.0563
      8 C7          3.6568    2.1626   -0.0217 C.2       1 <0>         0.1575
      9 N1          4.8997    1.7087   -0.0415 N.2       1 <0>        -0.4863
     10 C8          5.9307    2.5323   -0.0471 C.2       1 <0>         0.0972
     11 C9          5.7109    3.8854   -0.0322 C.2       1 <0>        -0.1874
     12 S1          3.9233    3.9301   -0.0160 S.3       1 <0>         0.0400
     13 C10         7.3149    1.9990   -0.0689 C.ar      1 <0>        -0.0113
     14 C11         8.4008    2.8725   -0.0684 C.ar      1 <0>        -0.0994
     15 C12         9.6864    2.3712   -0.0883 C.ar      1 <0>        -0.0896
     16 C13         9.8983    1.0036   -0.1086 C.ar      1 <0>        -0.0852
     17 C14         8.8232    0.1318   -0.1092 C.ar      1 <0>        -0.0915
     18 C15         7.5337    0.6227   -0.0841 C.ar      1 <0>        -0.0800
     19 Br1        11.6626    0.3237   -0.1364 Br        1 <0>        -0.0465
     20 H1         -0.9599    1.9048    0.0260 H         1 <0>         0.1439
     21 H2          1.1504    3.1681    0.0077 H         1 <0>         0.1348
     22 H3          3.3380   -0.5198   -0.0328 H         1 <0>         0.1469
     23 H4         -0.9271   -0.5545    0.0083 H         1 <0>         0.1416
     24 H5          6.4209    4.6992   -0.0338 H         1 <0>         0.2045
     25 H6          8.2366    3.9398   -0.0529 H         1 <0>         0.1343
     26 H7         10.5286    3.0473   -0.0883 H         1 <0>         0.1379
     27 H8          8.9938   -0.9346   -0.1251 H         1 <0>         0.1370
     28 H9          6.6956   -0.0584   -0.0804 H         1 <0>         0.1420
@<TRIPOS>BOND
     1    1    6 ar
     2    1    2 ar
     3    1   20 1
     4    2    3 ar
     5    2   21 1
     6    3    4 ar
     7    3    8 1
     8    4    5 ar
     9    4   22 1
    10    5    6 ar
    11    5    7 1
    12    6   23 1
    13    8   12 1
    14    8    9 2
    15    9   10 1
    16   10   11 2
    17   10   13 1
    18   11   12 1
    19   11   24 1
    20   13   18 ar
    21   13   14 ar
    22   14   15 ar
    23   14   25 1
    24   15   16 ar
    25   15   26 1
    26   16   17 ar
    27   16   19 1
    28   17   18 ar
    29   17   27 1
    30   18   28 1
@<TRIPOS>MOLECULE
ZINC40419408
   21    22     0     0     0
SMALL
USER_CHARGES

@<TRIPOS>ATOM
      1 C1         -0.0168    1.3892    0.0097 C.2       1 <0>        -0.1533
      2 C2          1.1553    2.0612    0.0021 C.2       1 <0>        -0.1543
      3 S1          2.3523    0.7377   -0.0164 S.3       1 <0>         0.1153
      4 C3          1.2157   -0.6385   -0.0130 C.2       1 <0>        -0.1152
      5 C4          0.0021   -0.0041    0.0020 C.2       1 <0>        -0.0767
      6 C5         -1.2567   -0.7783    0.0104 C.2       1 <0>         0.2050
      7 N1         -1.4369   -2.0920    0.0105 N.2       1 <0>        -0.5143
      8 C6         -2.6430   -2.6140    0.0187 C.2       1 <0>        -0.0123
      9 C7         -3.7317   -1.8030    0.0272 C.2       1 <0>        -0.1857
     10 S2         -2.9471   -0.1959    0.0309 S.3       1 <0>         0.0919
     11 C8         -2.8174   -4.1109    0.0182 C.3       1 <0>         0.0797
     12 N2         -2.7636   -4.6096   -1.3625 N.4       1 <0>        -0.6348
     13 H1         -0.9548    1.9242    0.0260 H         1 <0>         0.1406
     14 H2          1.3247    3.1278    0.0059 H         1 <0>         0.1998
     15 H3          1.4295   -1.6970   -0.0210 H         1 <0>         0.1974
     16 H4         -4.7812   -2.0578    0.0345 H         1 <0>         0.2099
     17 H5         -2.0192   -4.5698    0.6016 H         1 <0>         0.1469
     18 H6         -3.7815   -4.3645    0.4588 H         1 <0>         0.1480
     19 H7         -3.5024   -4.1848   -1.9026 H         1 <0>         0.4337
     20 H8         -1.8711   -4.3748   -1.7704 H         1 <0>         0.4382
     21 H9         -2.8803   -5.6119   -1.3629 H         1 <0>         0.4402
@<TRIPOS>BOND
     1    1    5 1
     2    1    2 2
     3    1   13 1
     4    2    3 1
     5    2   14 1
     6    3    4 1
     7    4    5 2
     8    4   15 1
     9    5    6 1
    10    6   10 1
    11    6    7 2
    12    7    8 1
    13    8    9 2
    14    8   11 1
    15    9   10 1
    16    9   16 1
    17   11   12 1
    18   11   17 1
    19   11   18 1
    20   12   19 1
    21   12   20 1
    22   12   21 1
@<TRIPOS>MOLECULE
ZINC90249915
   30    31     0     0     0
SMALL
USER_CHARGES

@<TRIPOS>ATOM
      1 C1         -0.0187    1.5258    0.0104 C.3       1 <0>        -0.1900
      2 C2          0.0021   -0.0041    0.0020 C.3       1 <0>        -0.0096
      3 N1         -1.3761   -0.5125    0.0124 N.4       1 <0>        -0.5090
      4 C3         -1.3562   -1.9814    0.0044 C.3       1 <0>         0.0771
      5 C4         -2.7700   -2.5030    0.0151 C.2       1 <0>        -0.0193
      6 C5         -3.3826   -2.8334   -1.1527 C.2       1 <0>        -0.2052
      7 S1         -4.9779   -3.3700   -0.5480 S.3       1 <0>         0.1550
      8 C6         -4.6555   -3.0964    1.1893 C.2       1 <0>         0.1432
      9 N2         -3.4099   -2.6442    1.1521 N.2       1 <0>        -0.4900
     10 C7         -5.5386   -3.3190    2.3541 C.ar      1 <0>         0.0123
     11 C8         -5.0857   -3.0303    3.6420 C.ar      1 <0>        -0.0564
     12 C9         -5.9155   -3.2400    4.7254 C.ar      1 <0>        -0.0216
     13 C10        -7.1946   -3.7360    4.5358 C.ar      1 <0>        -0.0760
     14 C11        -7.6492   -4.0240    3.2619 C.ar      1 <0>        -0.0668
     15 C12        -6.8312   -3.8134    2.1695 C.ar      1 <0>        -0.0776
     16 Br1        -7.4576   -4.2011    0.4279 Br        1 <0>         0.0139
     17 Cl1        -5.3542   -2.8816    6.3285 Cl        1 <0>        -0.0345
     18 H1          1.0039    1.9031    0.0027 H         1 <0>         0.1079
     19 H2         -0.5459    1.8868   -0.8726 H         1 <0>         0.0803
     20 H3         -0.5289    1.8773    0.9072 H         1 <0>         0.0806
     21 H4          0.5123   -0.3556   -0.8948 H         1 <0>         0.1322
     22 H5          0.5293   -0.3651    0.8851 H         1 <0>         0.1323
     23 H6         -1.8484   -0.1871    0.8426 H         1 <0>         0.4304
     24 H7         -0.8460   -2.3329   -0.8924 H         1 <0>         0.1448
     25 H8         -0.8290   -2.3425    0.8874 H         1 <0>         0.1435
     26 H9         -3.0095   -2.7850   -2.1650 H         1 <0>         0.2050
     27 H10        -4.0882   -2.6441    3.7911 H         1 <0>         0.1555
     28 H11        -7.8396   -3.8990    5.3865 H         1 <0>         0.1575
     29 H12        -8.6476   -4.4110    3.1208 H         1 <0>         0.1587
     30 H13        -1.8641   -0.1783   -0.8050 H         1 <0>         0.4258
@<TRIPOS>BOND
     1    1    2 1
     2    1   18 1
     3    1   19 1
     4    1   20 1
     5    2    3 1
     6    2   21 1
     7    2   22 1
     8    3    4 1
     9    3   23 1
    10    3   30 1
    11    4    5 1
    12    4   24 1
    13    4   25 1
    14    5    9 1
    15    5    6 2
    16    6    7 1
    17    6   26 1
    18    7    8 1
    19    8    9 2
    20    8   10 1
    21   10   15 ar
    22   10   11 ar
    23   11   12 ar
    24   11   27 1
    25   12   13 ar
    26   12   17 1
    27   13   14 ar
    28   13   28 1
    29   14   15 ar
    30   14   29 1
    31   15   16 1
@<TRIPOS>MOLECULE
ZINC52859455
   31    33     0     0     0
SMALL
USER_CHARGES

@<TRIPOS>ATOM
      1 C1         -0.0167    1.3803    0.0096 C.ar      1 <0>        -0.0490
      2 C2          1.1678    2.0944    0.0022 C.ar      1 <0>        -0.1319
      3 C3          2.3789    1.4289   -0.0135 C.ar      1 <0>         0.1334
      4 C4          2.4042    0.0314   -0.0212 C.ar      1 <0>        -0.0563
      5 C5          1.2052   -0.6818   -0.0131 C.ar      1 <0>        -0.0324
      6 C6          0.0021   -0.0041    0.0020 C.ar      1 <0>        -0.0499
      7 Cl1        -1.4907   -0.8902    0.0121 Cl        1 <0>        -0.0373
      8 C7          3.6957   -0.6878   -0.0384 C.2       1 <0>         0.1622
      9 N1          3.9323   -1.9921   -0.0533 N.2       1 <0>        -0.4985
     10 C8          5.1578   -2.4621   -0.0675 C.2       1 <0>        -0.0128
     11 C9          6.2123   -1.6044   -0.0671 C.2       1 <0>        -0.1865
     12 S1          5.3592   -0.0326   -0.0527 S.3       1 <0>         0.1376
     13 C10         5.3952   -3.9502   -0.0837 C.3       1 <0>         0.0835
     14 N2          5.3635   -4.4661    1.2914 N.4       1 <0>        -0.4786
     15 C11         5.5950   -5.9167    1.2756 C.3       1 <0>        -0.0842
     16 C12         4.4621   -6.8183    1.7700 C.3       1 <0>        -0.1533
     17 C13         5.7164   -6.6274    2.6250 C.3       1 <0>        -0.1539
     18 F1          3.5353    2.1273   -0.0216 F         1 <0>        -0.1185
     19 H1         -0.9605    1.9050    0.0260 H         1 <0>         0.1580
     20 H2          1.1462    3.1741    0.0082 H         1 <0>         0.1622
     21 H3          1.2179   -1.7617   -0.0194 H         1 <0>         0.1555
     22 H4          7.2717   -1.8140   -0.0773 H         1 <0>         0.2120
     23 H5          4.6168   -4.4360   -0.6721 H         1 <0>         0.1458
     24 H6          6.3690   -4.1579   -0.5273 H         1 <0>         0.1466
     25 H7          6.0841   -4.0164    1.8360 H         1 <0>         0.4268
     26 H8          6.2107   -6.2856    0.4552 H         1 <0>         0.1795
     27 H9          3.5450   -6.3352    2.1070 H         1 <0>         0.1212
     28 H10         4.3321   -7.7806    1.2748 H         1 <0>         0.1346
     29 H11         6.4117   -7.4642    2.6923 H         1 <0>         0.1350
     30 H12         5.6246   -6.0187    3.5245 H         1 <0>         0.1204
     31 H13         4.4621   -4.2738    1.7020 H         1 <0>         0.4285
@<TRIPOS>BOND
     1    1    6 ar
     2    1    2 ar
     3    1   19 1
     4    2    3 ar
     5    2   20 1
     6    3    4 ar
     7    3   18 1
     8    4    5 ar
     9    4    8 1
    10    5    6 ar
    11    5   21 1
    12    6    7 1
    13    8   12 1
    14    8    9 2
    15    9   10 1
    16   10   11 2
    17   10   13 1
    18   11   12 1
    19   11   22 1
    20   13   14 1
    21   13   23 1
    22   13   24 1
    23   14   15 1
    24   14   25 1
    25   14   31 1
    26   15   17 1
    27   15   16 1
    28   15   26 1
    29   16   17 1
    30   16   27 1
    31   16   28 1
    32   17   29 1
    33   17   30 1
@<TRIPOS>MOLECULE
ZINC80813168
   36    37     0     0     0
SMALL
USER_CHARGES

@<TRIPOS>ATOM
      1 C1         -0.0187    1.5258    0.0104 C.3       1 <0>        -0.1562
      2 C2          0.0021   -0.0041    0.0020 C.3       1 <0>        -0.1499
      3 C3         -1.4333   -0.5336    0.0129 C.3       1 <0>        -0.0157
      4 N1         -1.4134   -2.0025    0.0048 N.4       1 <0>        -0.5006
      5 C4         -2.7915   -2.5110    0.0152 C.3       1 <0>         0.1168
      6 H1         -3.3284   -2.0882    0.8645 H         1 <0>         0.1513
      7 C5         -3.4935   -2.1085   -1.2833 C.3       1 <0>        -0.1802
      8 C6         -2.7718   -4.0134    0.1308 C.2       1 <0>         0.0015
      9 C7         -3.8413   -4.6702    0.6531 C.2       1 <0>        -0.1717
     10 S1         -3.2744   -6.3629    0.5442 S.3       1 <0>         0.1149
     11 C8         -1.6792   -6.0118   -0.1831 C.2       1 <0>         0.1732
     12 N2         -1.7243   -4.6903   -0.2776 N.2       1 <0>        -0.5269
     13 C9         -0.6021   -6.9447   -0.5779 C.ar      1 <0>        -0.0201
     14 C10         0.5823   -6.4539   -1.1299 C.ar      1 <0>        -0.0522
     15 C11         1.5841   -7.3282   -1.4961 C.ar      1 <0>        -0.0971
     16 C12         1.4173   -8.6912   -1.3172 C.ar      1 <0>        -0.0062
     17 C13         0.2438   -9.1849   -0.7703 C.ar      1 <0>        -0.0307
     18 C14        -0.7635   -8.3184   -0.3947 C.ar      1 <0>        -0.0671
     19 Cl1         0.0427  -10.8951   -0.5501 Cl        1 <0>        -0.0212
     20 Cl2         2.6828   -9.7854   -1.7806 Cl        1 <0>        -0.0211
     21 H2          1.0039    1.9031    0.0027 H         1 <0>         0.0778
     22 H3         -0.5459    1.8868   -0.8726 H         1 <0>         0.0672
     23 H4         -0.5289    1.8773    0.9072 H         1 <0>         0.0671
     24 H5          0.5123   -0.3556   -0.8948 H         1 <0>         0.0866
     25 H6          0.5293   -0.3651    0.8851 H         1 <0>         0.0861
     26 H7         -1.9435   -0.1821    0.9097 H         1 <0>         0.1320
     27 H8         -1.9605   -0.1726   -0.8702 H         1 <0>         0.1337
     28 H9         -0.9411   -2.3279   -0.8254 H         1 <0>         0.4325
     29 H10        -3.5077   -1.0218   -1.3669 H         1 <0>         0.0898
     30 H11        -2.9566   -2.5312   -2.1326 H         1 <0>         0.0845
     31 H12        -4.5161   -2.4858   -1.2756 H         1 <0>         0.1071
     32 H13        -4.7746   -4.2783    1.0298 H         1 <0>         0.2121
     33 H14         0.7138   -5.3911   -1.2703 H         1 <0>         0.1478
     34 H15         2.5006   -6.9491   -1.9235 H         1 <0>         0.1568
     35 H16        -1.6761   -8.7035    0.0357 H         1 <0>         0.1487
     36 H17        -0.9254   -2.3367    0.8222 H         1 <0>         0.4294
@<TRIPOS>BOND
     1    1    2 1
     2    1   21 1
     3    1   22 1
     4    1   23 1
     5    2    3 1
     6    2   24 1
     7    2   25 1
     8    3    4 1
     9    3   26 1
    10    3   27 1
    11    4    5 1
    12    4   28 1
    13    4   36 1
    14    5    6 1
    15    5    7 1
    16    5    8 1
    17    7   29 1
    18    7   30 1
    19    7   31 1
    20    8   12 1
    21    8    9 2
    22    9   10 1
    23    9   32 1
    24   10   11 1
    25   11   12 2
    26   11   13 1
    27   13   18 ar
    28   13   14 ar
    29   14   15 ar
    30   14   33 1
    31   15   16 ar
    32   15   34 1
    33   16   17 ar
    34   16   20 1
    35   17   18 ar
    36   17   19 1
    37   18   35 1
@<TRIPOS>MOLECULE
ZINC80813173
   36    37     0     0     0
SMALL
USER_CHARGES

@<TRIPOS>ATOM
      1 C1         -0.0187    1.5258    0.0104 C.3       1 <0>        -0.1562
      2 C2          0.0021   -0.0041    0.0020 C.3       1 <0>        -0.1499
      3 C3         -1.4333   -0.5336    0.0129 C.3       1 <0>        -0.0157
      4 N1         -1.4134   -2.0025    0.0048 N.4       1 <0>        -0.5006
      5 C4         -2.7915   -2.5110    0.0152 C.3       1 <0>         0.1168
      6 H1         -3.3444   -2.0792   -0.8190 H         1 <0>         0.1513
      7 C5         -3.4685   -2.1226    1.3312 C.3       1 <0>        -0.1801
      8 C6         -2.7742   -4.0121   -0.1168 C.2       1 <0>         0.0016
      9 C7         -3.8495   -4.6624   -0.6352 C.2       1 <0>        -0.1717
     10 S1         -3.2823   -6.3565   -0.5518 S.3       1 <0>         0.1147
     11 C8         -1.6792   -6.0144    0.1624 C.2       1 <0>         0.1735
     12 N2         -1.7187   -4.6932    0.2633 N.2       1 <0>        -0.5270
     13 C9         -0.5984   -6.9521    0.5349 C.ar      1 <0>        -0.0202
     14 C10         0.5871   -6.4691    1.0914 C.ar      1 <0>        -0.0521
     15 C11         1.5921   -7.3481    1.4376 C.ar      1 <0>        -0.0971
     16 C12         1.4272   -8.7078    1.2342 C.ar      1 <0>        -0.0062
     17 C13         0.2530   -9.1937    0.6818 C.ar      1 <0>        -0.0308
     18 C14        -0.7620   -8.3234    0.3368 C.ar      1 <0>        -0.0670
     19 Cl1         0.0549  -10.8998    0.4297 Cl        1 <0>        -0.0212
     20 Cl2         2.6966   -9.8079    1.6725 Cl        1 <0>        -0.0211
     21 H2          1.0039    1.9031    0.0027 H         1 <0>         0.0778
     22 H3         -0.5459    1.8868   -0.8726 H         1 <0>         0.0671
     23 H4         -0.5289    1.8773    0.9072 H         1 <0>         0.0672
     24 H5          0.5123   -0.3556   -0.8948 H         1 <0>         0.0861
     25 H6          0.5293   -0.3651    0.8851 H         1 <0>         0.0866
     26 H7         -1.9435   -0.1821    0.9097 H         1 <0>         0.1337
     27 H8         -1.9605   -0.1726   -0.8702 H         1 <0>         0.1320
     28 H9         -0.9411   -2.3279   -0.8254 H         1 <0>         0.4294
     29 H10        -4.4911   -2.4999    1.3389 H         1 <0>         0.1070
     30 H11        -2.9156   -2.5543    2.1655 H         1 <0>         0.0845
     31 H12        -3.4811   -1.0368    1.4267 H         1 <0>         0.0898
     32 H13        -4.7868   -4.2660   -0.9968 H         1 <0>         0.2121
     33 H14         0.7174   -5.4089    1.2503 H         1 <0>         0.1478
     34 H15         2.5097   -6.9750    1.8679 H         1 <0>         0.1568
     35 H16        -1.6787   -8.7031   -0.0896 H         1 <0>         0.1487
     36 H17        -0.9254   -2.3367    0.8222 H         1 <0>         0.4325
@<TRIPOS>BOND
     1    1    2 1
     2    1   21 1
     3    1   22 1
     4    1   23 1
     5    2    3 1
     6    2   24 1
     7    2   25 1
     8    3    4 1
     9    3   26 1
    10    3   27 1
    11    4    5 1
    12    4   28 1
    13    4   36 1
    14    5    6 1
    15    5    7 1
    16    5    8 1
    17    7   29 1
    18    7   30 1
    19    7   31 1
    20    8   12 1
    21    8    9 2
    22    9   10 1
    23    9   32 1
    24   10   11 1
    25   11   12 2
    26   11   13 1
    27   13   18 ar
    28   13   14 ar
    29   14   15 ar
    30   14   33 1
    31   15   16 ar
    32   15   34 1
    33   16   17 ar
    34   16   20 1
    35   17   18 ar
    36   17   19 1
    37   18   35 1
@<TRIPOS>MOLECULE
ZINC80811555
   33    34     0     0     0
SMALL
USER_CHARGES

@<TRIPOS>ATOM
      1 C1         -0.0187    1.5258    0.0104 C.3       1 <0>        -0.1882
      2 C2          0.0021   -0.0041    0.0020 C.3       1 <0>        -0.0152
      3 N1          0.6897   -0.4778   -1.2066 N.4       1 <0>        -0.5009
      4 C3          0.7096   -1.9467   -1.2147 C.3       1 <0>         0.1167
      5 H1         -0.3082   -2.3244   -1.1174 H         1 <0>         0.1511
      6 C4          1.5550   -2.4517   -0.0438 C.3       1 <0>        -0.1801
      7 C5          1.3045   -2.4338   -2.5107 C.2       1 <0>         0.0019
      8 C6          0.9832   -3.6659   -2.9866 C.2       1 <0>        -0.1726
      9 S1          1.9473   -3.6998   -4.4926 S.3       1 <0>         0.1124
     10 C7          2.6711   -2.0735   -4.3244 C.2       1 <0>         0.1765
     11 N2          2.1295   -1.6670   -3.1846 N.2       1 <0>        -0.5289
     12 C8          3.6147   -1.3693   -5.2186 C.ar      1 <0>        -0.0361
     13 C9          4.0661   -0.0895   -4.8921 C.ar      1 <0>        -0.0338
     14 C10         4.9467    0.5633   -5.7291 C.ar      1 <0>        -0.1410
     15 C11         5.3835   -0.0487   -6.8931 C.ar      1 <0>         0.1470
     16 C12         4.9382   -1.3199   -7.2229 C.ar      1 <0>        -0.0753
     17 C13         4.0616   -1.9842   -6.3887 C.ar      1 <0>        -0.0493
     18 Cl1         5.4895   -2.0797   -8.6831 Cl        1 <0>        -0.0207
     19 F1          6.2458    0.5954   -7.7096 F         1 <0>        -0.1103
     20 H2          1.0039    1.9031    0.0027 H         1 <0>         0.0810
     21 H3         -0.5459    1.8868   -0.8726 H         1 <0>         0.0805
     22 H4         -0.5289    1.8773    0.9072 H         1 <0>         0.1077
     23 H5          0.5293   -0.3651    0.8851 H         1 <0>         0.1330
     24 H6         -1.0205   -0.3814    0.0098 H         1 <0>         0.1315
     25 H7          0.2017   -0.1436   -2.0240 H         1 <0>         0.4293
     26 H8          1.5698   -3.5416   -0.0498 H         1 <0>         0.1068
     27 H9          2.5729   -2.0740   -0.1410 H         1 <0>         0.0843
     28 H10         1.1248   -2.0993    0.8937 H         1 <0>         0.0898
     29 H11         0.3278   -4.4166   -2.5703 H         1 <0>         0.2118
     30 H12         3.7260    0.3891   -3.9856 H         1 <0>         0.1491
     31 H13         5.2963    1.5536   -5.4769 H         1 <0>         0.1600
     32 H14         3.7188   -2.9762   -6.6436 H         1 <0>         0.1498
     33 H15         1.6363   -0.1286   -1.2138 H         1 <0>         0.4323
@<TRIPOS>BOND
     1    1    2 1
     2    1   20 1
     3    1   21 1
     4    1   22 1
     5    2    3 1
     6    2   23 1
     7    2   24 1
     8    3    4 1
     9    3   25 1
    10    3   33 1
    11    4    5 1
    12    4    6 1
    13    4    7 1
    14    6   26 1
    15    6   27 1
    16    6   28 1
    17    7   11 1
    18    7    8 2
    19    8    9 1
    20    8   29 1
    21    9   10 1
    22   10   11 2
    23   10   12 1
    24   12   17 ar
    25   12   13 ar
    26   13   14 ar
    27   13   30 1
    28   14   15 ar
    29   14   31 1
    30   15   16 ar
    31   15   19 1
    32   16   17 ar
    33   16   18 1
    34   17   32 1
@<TRIPOS>MOLECULE
ZINC80811550
   33    34     0     0     0
SMALL
USER_CHARGES

@<TRIPOS>ATOM
      1 C1         -0.0187    1.5258    0.0104 C.3       1 <0>        -0.1882
      2 C2          0.0021   -0.0041    0.0020 C.3       1 <0>        -0.0152
      3 N1          0.6897   -0.4778   -1.2066 N.4       1 <0>        -0.5009
      4 C3          0.7096   -1.9467   -1.2147 C.3       1 <0>         0.1167
      5 H1          1.1577   -2.3090   -0.2895 H         1 <0>         0.1512
      6 C4         -0.7215   -2.4755   -1.3296 C.3       1 <0>        -0.1801
      7 C5          1.5201   -2.4316   -2.3890 C.2       1 <0>         0.0018
      8 C6          2.1046   -3.6583   -2.3526 C.2       1 <0>        -0.1725
      9 S1          2.9015   -3.6917   -3.9533 S.3       1 <0>         0.1125
     10 C7          2.3705   -2.0725   -4.4948 C.2       1 <0>         0.1764
     11 N2          1.6584   -1.6723   -3.4507 N.2       1 <0>        -0.5288
     12 C8          2.6465   -1.3712   -5.7668 C.ar      1 <0>        -0.0361
     13 C9          2.1333   -0.0919   -5.9867 C.ar      1 <0>        -0.0338
     14 C10         2.3938    0.5585   -7.1746 C.ar      1 <0>        -0.1410
     15 C11         3.1631   -0.0556   -8.1498 C.ar      1 <0>         0.1470
     16 C12         3.6753   -1.3267   -7.9372 C.ar      1 <0>        -0.0752
     17 C13         3.4255   -1.9837   -6.7491 C.ar      1 <0>        -0.0493
     18 Cl1         4.6378   -2.0897   -9.1640 Cl        1 <0>        -0.0207
     19 F1          3.4148    0.5859   -9.3118 F         1 <0>        -0.1103
     20 H2          1.0039    1.9031    0.0027 H         1 <0>         0.0805
     21 H3         -0.5459    1.8868   -0.8726 H         1 <0>         0.0809
     22 H4         -0.5289    1.8773    0.9072 H         1 <0>         0.1077
     23 H5          0.5293   -0.3651    0.8851 H         1 <0>         0.1315
     24 H6         -1.0205   -0.3814    0.0098 H         1 <0>         0.1330
     25 H7          0.2017   -0.1436   -2.0240 H         1 <0>         0.4323
     26 H8         -1.3078   -2.1247   -0.4802 H         1 <0>         0.0898
     27 H9         -1.1696   -2.1131   -2.2548 H         1 <0>         0.0843
     28 H10        -0.7067   -3.5654   -1.3356 H         1 <0>         0.1068
     29 H11         2.0918   -4.4054   -1.5728 H         1 <0>         0.2118
     30 H12         1.5330    0.3877   -5.2278 H         1 <0>         0.1491
     31 H13         1.9970    1.5484   -7.3452 H         1 <0>         0.1600
     32 H14         3.8286   -2.9717   -6.5821 H         1 <0>         0.1498
     33 H15         1.6363   -0.1286   -1.2138 H         1 <0>         0.4293
@<TRIPOS>BOND
     1    1    2 1
     2    1   20 1
     3    1   21 1
     4    1   22 1
     5    2    3 1
     6    2   23 1
     7    2   24 1
     8    3    4 1
     9    3   25 1
    10    3   33 1
    11    4    5 1
    12    4    6 1
    13    4    7 1
    14    6   26 1
    15    6   27 1
    16    6   28 1
    17    7   11 1
    18    7    8 2
    19    8    9 1
    20    8   29 1
    21    9   10 1
    22   10   11 2
    23   10   12 1
    24   12   17 ar
    25   12   13 ar
    26   13   14 ar
    27   13   30 1
    28   14   15 ar
    29   14   31 1
    30   15   16 ar
    31   15   19 1
    32   16   17 ar
    33   16   18 1
    34   17   32 1
@<TRIPOS>MOLECULE
ZINC80802231
   30    31     0     0     0
SMALL
USER_CHARGES

@<TRIPOS>ATOM
      1 C1         -0.0187    1.5258    0.0104 C.3       1 <0>        -0.1802
      2 C2          0.0021   -0.0041    0.0020 C.3       1 <0>         0.1161
      3 H1          0.5123   -0.3556   -0.8948 H         1 <0>         0.1512
      4 C3         -1.4117   -0.5257    0.0127 C.2       1 <0>        -0.0012
      5 C4         -2.0952   -0.6636   -1.1540 C.2       1 <0>        -0.1827
      6 S1         -3.6547   -1.2975   -0.5500 S.3       1 <0>         0.1417
      7 C5         -3.2272   -1.3095    1.1860 C.2       1 <0>         0.1634
      8 N1         -1.9832   -0.8527    1.1482 N.2       1 <0>        -0.5257
      9 C6         -4.0402   -1.7221    2.3497 C.ar      1 <0>        -0.0553
     10 C7         -3.5093   -1.6457    3.6382 C.ar      1 <0>        -0.0388
     11 C8         -4.2724   -2.0321    4.7204 C.ar      1 <0>        -0.1133
     12 C9         -5.5628   -2.4953    4.5326 C.ar      1 <0>        -0.0509
     13 C10        -6.0977   -2.5746    3.2590 C.ar      1 <0>        -0.0725
     14 C11        -5.3454   -2.1849    2.1651 C.ar      1 <0>         0.1364
     15 F1         -5.8694   -2.2569    0.9219 F         1 <0>        -0.1109
     16 Cl1        -7.7173   -3.1576    3.0338 Cl        1 <0>        -0.0213
     17 N2          0.7126   -0.4907    1.1921 N.4       1 <0>        -0.5007
     18 C12         2.1220   -0.0825    1.1220 C.3       1 <0>        -0.0522
     19 H2          1.0039    1.9031    0.0027 H         1 <0>         0.0902
     20 H3         -0.5459    1.8868   -0.8726 H         1 <0>         0.1066
     21 H4         -0.5289    1.8773    0.9072 H         1 <0>         0.0841
     22 H5         -1.7832   -0.4495   -2.1656 H         1 <0>         0.2111
     23 H6         -2.5024   -1.2850    3.7877 H         1 <0>         0.1484
     24 H7         -3.8613   -1.9733    5.7174 H         1 <0>         0.1544
     25 H8         -6.1550   -2.7966    5.3841 H         1 <0>         0.1573
     26 H9          0.2896   -0.0986    2.0201 H         1 <0>         0.4343
     27 H10         2.6492   -0.4436    2.0051 H         1 <0>         0.1287
     28 H11         2.5788   -0.5061    0.2276 H         1 <0>         0.1244
     29 H12         2.1837    1.0050    1.0814 H         1 <0>         0.1257
     30 H13         0.6554   -1.4974    1.2298 H         1 <0>         0.4316
@<TRIPOS>BOND
     1    1    2 1
     2    1   19 1
     3    1   20 1
     4    1   21 1
     5    2    3 1
     6    2    4 1
     7    2   17 1
     8    4    8 1
     9    4    5 2
    10    5    6 1
    11    5   22 1
    12    6    7 1
    13    7    8 2
    14    7    9 1
    15    9   14 ar
    16    9   10 ar
    17   10   11 ar
    18   10   23 1
    19   11   12 ar
    20   11   24 1
    21   12   13 ar
    22   12   25 1
    23   13   14 ar
    24   13   16 1
    25   14   15 1
    26   17   18 1
    27   17   26 1
    28   17   30 1
    29   18   27 1
    30   18   28 1
    31   18   29 1
@<TRIPOS>MOLECULE
ZINC80802229
   30    31     0     0     0
SMALL
USER_CHARGES

@<TRIPOS>ATOM
      1 C1         -0.0187    1.5258    0.0104 C.3       1 <0>        -0.1802
      2 C2          0.0021   -0.0041    0.0020 C.3       1 <0>         0.1161
      3 H1          0.5123   -0.3556   -0.8948 H         1 <0>         0.1513
      4 C3          0.7309   -0.5033    1.2229 C.2       1 <0>        -0.0013
      5 C4          2.0859   -0.6102    1.2105 C.2       1 <0>        -0.1826
      6 S1          2.3834   -1.2282    2.8622 S.3       1 <0>         0.1418
      7 C5          0.6750   -1.2766    3.3876 C.2       1 <0>         0.1633
      8 N1          0.0588   -0.8304    2.3018 N.2       1 <0>        -0.5256
      9 C6          0.1038   -1.6965    4.6848 C.ar      1 <0>        -0.0552
     10 C7         -1.2767   -1.6622    4.8869 C.ar      1 <0>        -0.0389
     11 C8         -1.8042   -2.0552    6.0993 C.ar      1 <0>        -0.1133
     12 C9         -0.9689   -2.4834    7.1161 C.ar      1 <0>        -0.0509
     13 C10         0.4011   -2.5208    6.9251 C.ar      1 <0>        -0.0725
     14 C11         0.9431   -2.1350    5.7120 C.ar      1 <0>         0.1364
     15 F1          2.2803   -2.1768    5.5234 F         1 <0>        -0.1109
     16 Cl1         1.4406   -3.0590    8.2071 Cl        1 <0>        -0.0213
     17 N2         -1.3761   -0.5125    0.0124 N.4       1 <0>        -0.5007
     18 C12        -2.0500   -0.1262   -1.2343 C.3       1 <0>        -0.0523
     19 H2          1.0039    1.9031    0.0027 H         1 <0>         0.1066
     20 H3         -0.5459    1.8868   -0.8726 H         1 <0>         0.0902
     21 H4         -0.5289    1.8773    0.9072 H         1 <0>         0.0840
     22 H5          2.7883   -0.3848    0.4217 H         1 <0>         0.2110
     23 H6         -1.9310   -1.3281    4.0953 H         1 <0>         0.1484
     24 H7         -2.8725   -2.0282    6.2557 H         1 <0>         0.1544
     25 H8         -1.3881   -2.7894    8.0632 H         1 <0>         0.1573
     26 H9         -1.3629   -1.5185    0.0898 H         1 <0>         0.4316
     27 H10        -3.0726   -0.5034   -1.2266 H         1 <0>         0.1287
     28 H11        -2.0643    0.9605   -1.3179 H         1 <0>         0.1257
     29 H12        -1.5132   -0.5489   -2.0836 H         1 <0>         0.1245
     30 H13        -1.8730   -0.1212    0.7986 H         1 <0>         0.4343
@<TRIPOS>BOND
     1    1    2 1
     2    1   19 1
     3    1   20 1
     4    1   21 1
     5    2    3 1
     6    2    4 1
     7    2   17 1
     8    4    8 1
     9    4    5 2
    10    5    6 1
    11    5   22 1
    12    6    7 1
    13    7    8 2
    14    7    9 1
    15    9   14 ar
    16    9   10 ar
    17   10   11 ar
    18   10   23 1
    19   11   12 ar
    20   11   24 1
    21   12   13 ar
    22   12   25 1
    23   13   14 ar
    24   13   16 1
    25   14   15 1
    26   17   18 1
    27   17   26 1
    28   17   30 1
    29   18   27 1
    30   18   28 1
    31   18   29 1
@<TRIPOS>MOLECULE
ZINC61036196
   31    32     0     0     0
SMALL
USER_CHARGES

@<TRIPOS>ATOM
      1 C1         -0.0187    1.5258    0.0104 C.3       1 <0>        -0.1644
      2 C2          0.0021   -0.0041    0.0020 C.3       1 <0>         0.1344
      3 C3         -1.4333   -0.5336    0.0129 C.3       1 <0>        -0.1610
      4 N1          0.6878   -0.4765   -1.2033 N.am      1 <0>        -0.7092
      5 C4          2.0310   -0.5870   -1.2149 C.2       1 <0>         0.5915
      6 O1          2.6738   -0.2944   -0.2247 O.2       1 <0>        -0.5349
      7 C5          2.7205   -1.0621   -2.4269 C.2       1 <0>        -0.0141
      8 C6          4.0848   -1.1828   -2.4474 C.2       1 <0>        -0.1947
      9 S1          4.3768   -1.7451   -4.0067 S.3       1 <0>         0.1840
     10 C7          2.6872   -1.8011   -4.5771 C.2       1 <0>         0.1034
     11 N2          2.0287   -1.3839   -3.5112 N.2       1 <0>        -0.4537
     12 C8          2.1612   -2.2123   -5.8971 C.ar      1 <0>         0.0004
     13 C9          0.7885   -2.1772   -6.1461 C.ar      1 <0>        -0.0689
     14 C10         0.3035   -2.5618   -7.3789 C.ar      1 <0>        -0.1036
     15 C11         1.1746   -2.9820   -8.3682 C.ar      1 <0>        -0.0915
     16 C12         2.5375   -3.0193   -8.1282 C.ar      1 <0>        -0.0325
     17 C13         3.0356   -2.6312   -6.8998 C.ar      1 <0>        -0.0884
     18 Cl1         3.6229   -3.5479   -9.3756 Cl        1 <0>        -0.0566
     19 H1          1.0039    1.9031    0.0027 H         1 <0>         0.0602
     20 H2         -0.5459    1.8868   -0.8726 H         1 <0>         0.0574
     21 H3         -0.5289    1.8773    0.9072 H         1 <0>         0.0680
     22 H4          0.5293   -0.3651    0.8851 H         1 <0>         0.0895
     23 H5         -1.9605   -0.1726   -0.8702 H         1 <0>         0.0621
     24 H6         -1.4185   -1.6235    0.0069 H         1 <0>         0.0623
     25 H7         -1.9435   -0.1821    0.9097 H         1 <0>         0.0751
     26 H8          0.1751   -0.7099   -1.9930 H         1 <0>         0.4086
     27 H9          4.7943   -0.9707   -1.6612 H         1 <0>         0.2119
     28 H10         0.1071   -1.8498   -5.3748 H         1 <0>         0.1421
     29 H11        -0.7588   -2.5353   -7.5722 H         1 <0>         0.1429
     30 H12         0.7898   -3.2824   -9.3316 H         1 <0>         0.1410
     31 H13         4.0994   -2.6559   -6.7147 H         1 <0>         0.1385
@<TRIPOS>BOND
     1    1    2 1
     2    1   19 1
     3    1   20 1
     4    1   21 1
     5    2    3 1
     6    2    4 1
     7    2   22 1
     8    3   23 1
     9    3   24 1
    10    3   25 1
    11    4    5 am
    12    4   26 1
    13    5    6 2
    14    5    7 1
    15    7   11 1
    16    7    8 2
    17    8    9 1
    18    8   27 1
    19    9   10 1
    20   10   11 2
    21   10   12 1
    22   12   17 ar
    23   12   13 ar
    24   13   14 ar
    25   13   28 1
    26   14   15 ar
    27   14   29 1
    28   15   16 ar
    29   15   30 1
    30   16   17 ar
    31   16   18 1
    32   17   31 1
@<TRIPOS>MOLECULE
ZINC86583995
   37    38     0     0     0
SMALL
USER_CHARGES

@<TRIPOS>ATOM
      1 C1         -0.0187    1.5258    0.0104 C.3       1 <0>        -0.1565
      2 C2          0.0021   -0.0041    0.0020 C.3       1 <0>        -0.1515
      3 C3         -1.4333   -0.5336    0.0129 C.3       1 <0>        -0.0102
      4 N1         -1.4134   -2.0025    0.0048 N.4       1 <0>        -0.5085
      5 C4         -2.7915   -2.5110    0.0152 C.3       1 <0>         0.0783
      6 C5         -2.7711   -4.0178    0.0069 C.2       1 <0>        -0.0080
      7 C6         -2.8584   -4.7060    1.1755 C.2       1 <0>        -0.1837
      8 S1         -2.7874   -6.3887    0.5738 S.3       1 <0>         0.0941
      9 C7         -2.6496   -5.9929   -1.1643 C.2       1 <0>         0.1911
     10 N2         -2.6745   -4.6677   -1.1296 N.2       1 <0>        -0.5109
     11 C8         -2.5419   -6.8991   -2.3272 C.ar      1 <0>        -0.0719
     12 C9         -2.4364   -6.3737   -3.6163 C.ar      1 <0>        -0.0146
     13 C10        -2.3355   -7.2215   -4.6985 C.ar      1 <0>        -0.2016
     14 C11        -2.3392   -8.5969   -4.5083 C.ar      1 <0>         0.1770
     15 C12        -2.4440   -9.1243   -3.2270 C.ar      1 <0>        -0.0724
     16 C13        -2.5395   -8.2821   -2.1386 C.ar      1 <0>        -0.0364
     17 Cl1        -2.4486  -10.8448   -2.9952 Cl        1 <0>        -0.0305
     18 O1         -2.2405   -9.4292   -5.5778 O.3       1 <0>        -0.2944
     19 C14        -2.1363   -8.8203   -6.8663 C.3       1 <0>         0.0197
     20 H1          1.0039    1.9031    0.0027 H         1 <0>         0.0776
     21 H2         -0.5459    1.8868   -0.8726 H         1 <0>         0.0675
     22 H3         -0.5289    1.8773    0.9072 H         1 <0>         0.0675
     23 H4          0.5123   -0.3556   -0.8948 H         1 <0>         0.0862
     24 H5          0.5293   -0.3651    0.8851 H         1 <0>         0.0862
     25 H6         -1.9435   -0.1821    0.9097 H         1 <0>         0.1331
     26 H7         -1.9605   -0.1726   -0.8702 H         1 <0>         0.1331
     27 H8         -0.9411   -2.3279   -0.8254 H         1 <0>         0.4310
     28 H9         -3.3017   -2.1594    0.9120 H         1 <0>         0.1457
     29 H10        -3.3187   -2.1499   -0.8678 H         1 <0>         0.1449
     30 H11        -2.9459   -4.3386    2.1873 H         1 <0>         0.2102
     31 H12        -2.4341   -5.3041   -3.7656 H         1 <0>         0.1445
     32 H13        -2.2539   -6.8154   -5.6959 H         1 <0>         0.1513
     33 H14        -2.6164   -8.6922   -1.1425 H         1 <0>         0.1456
     34 H15        -1.2459   -8.1925   -6.9006 H         1 <0>         0.0638
     35 H16        -2.0642   -9.5951   -7.6296 H         1 <0>         0.1126
     36 H17        -3.0193   -8.2087   -7.0516 H         1 <0>         0.0642
     37 H18        -0.9254   -2.3367    0.8222 H         1 <0>         0.4263
@<TRIPOS>BOND
     1    1    2 1
     2    1   20 1
     3    1   21 1
     4    1   22 1
     5    2    3 1
     6    2   23 1
     7    2   24 1
     8    3    4 1
     9    3   25 1
    10    3   26 1
    11    4    5 1
    12    4   27 1
    13    4   37 1
    14    5    6 1
    15    5   28 1
    16    5   29 1
    17    6   10 1
    18    6    7 2
    19    7    8 1
    20    7   30 1
    21    8    9 1
    22    9   10 2
    23    9   11 1
    24   11   16 ar
    25   11   12 ar
    26   12   13 ar
    27   12   31 1
    28   13   14 ar
    29   13   32 1
    30   14   15 ar
    31   14   18 1
    32   15   16 ar
    33   15   17 1
    34   16   33 1
    35   18   19 1
    36   19   34 1
    37   19   35 1
    38   19   36 1
@<TRIPOS>MOLECULE
ZINC71998273
   31    32     0     0     0
SMALL
USER_CHARGES

@<TRIPOS>ATOM
      1 C1          0.1739    1.6925   -0.3192 C.3       1 <0>        -0.1679
      2 C2          0.2119    0.1779   -0.1061 C.3       1 <0>         0.1108
      3 N1          0.6751   -0.4763   -1.3323 N.am      1 <0>        -0.6018
      4 C3          2.1054   -0.7163   -1.5391 C.3       1 <0>         0.0880
      5 C4         -0.2147   -0.8575   -2.2702 C.2       1 <0>         0.5878
      6 O1         -1.3900   -0.5703   -2.1458 O.2       1 <0>        -0.5344
      7 C5          0.2364   -1.6221   -3.4458 C.2       1 <0>        -0.0137
      8 C6         -0.6319   -1.9000   -4.4682 C.2       1 <0>        -0.1936
      9 S1          0.3341   -2.7666   -5.5401 S.3       1 <0>         0.1821
     10 C7          1.8505   -2.7317   -4.6008 C.2       1 <0>         0.0973
     11 N2          1.4897   -2.0460   -3.5315 N.2       1 <0>        -0.4451
     12 C8          3.1686   -3.3140   -4.9348 C.ar      1 <0>         0.0014
     13 C9          4.2389   -3.1785   -4.0498 C.ar      1 <0>        -0.0700
     14 C10         5.4660   -3.7236   -4.3665 C.ar      1 <0>        -0.1032
     15 C11         5.6374   -4.4039   -5.5589 C.ar      1 <0>        -0.0918
     16 C12         4.5799   -4.5422   -6.4416 C.ar      1 <0>        -0.0323
     17 C13         3.3451   -4.0058   -6.1331 C.ar      1 <0>        -0.0886
     18 Cl1         4.8044   -5.3974   -7.9356 Cl        1 <0>        -0.0568
     19 H1          1.1736    2.0498   -0.5663 H         1 <0>         0.0556
     20 H2         -0.5082    1.9274   -1.1363 H         1 <0>         0.0598
     21 H3         -0.1708    2.1793    0.5931 H         1 <0>         0.0682
     22 H4          0.8939   -0.0571    0.7110 H         1 <0>         0.0797
     23 H5         -0.7878   -0.1794    0.1410 H         1 <0>         0.0834
     24 H6          2.3537   -1.7288   -1.2211 H         1 <0>         0.0588
     25 H7          2.3445   -0.5985   -2.5960 H         1 <0>         0.0901
     26 H8          2.6823    0.0000   -0.9541 H         1 <0>         0.0612
     27 H9         -1.6735   -1.6309   -4.5627 H         1 <0>         0.2111
     28 H10         4.1070   -2.6475   -3.1186 H         1 <0>         0.1420
     29 H11         6.2949   -3.6188   -3.6821 H         1 <0>         0.1429
     30 H12         6.6001   -4.8285   -5.8023 H         1 <0>         0.1409
     31 H13         2.5193   -4.1181   -6.8200 H         1 <0>         0.1383
@<TRIPOS>BOND
     1    1    2 1
     2    1   19 1
     3    1   20 1
     4    1   21 1
     5    2    3 1
     6    2   22 1
     7    2   23 1
     8    3    4 1
     9    3    5 am
    10    4   24 1
    11    4   25 1
    12    4   26 1
    13    5    6 2
    14    5    7 1
    15    7   11 1
    16    7    8 2
    17    8    9 1
    18    8   27 1
    19    9   10 1
    20   10   11 2
    21   10   12 1
    22   12   17 ar
    23   12   13 ar
    24   13   14 ar
    25   13   28 1
    26   14   15 ar
    27   14   29 1
    28   15   16 ar
    29   15   30 1
    30   16   17 ar
    31   16   18 1
    32   17   31 1
@<TRIPOS>MOLECULE
ZINC03226972
   36    38     0     0     0
SMALL
USER_CHARGES
N-[(4-chlorophenyl)methyleneamino]-1-(2-phenylthiazol-4-yl)-methanamine
@<TRIPOS>ATOM
      1 C1          2.3776    1.4189   -0.0135 C.ar      1 <0>        -0.0968
      2 C2          1.1702    2.0943    0.0021 C.ar      1 <0>        -0.1179
      3 C3         -0.0168    1.3913    0.0097 C.ar      1 <0>        -0.0907
      4 C4          0.0021   -0.0041    0.0020 C.ar      1 <0>        -0.0226
      5 C5          1.2232   -0.6793   -0.0133 C.ar      1 <0>        -0.0684
      6 C6          2.4032    0.0356   -0.0207 C.ar      1 <0>        -0.1204
      7 C7         -1.2664   -0.7639    0.0105 C.2       1 <0>         0.1614
      8 N1         -1.4618   -2.0750    0.0054 N.2       1 <0>        -0.4873
      9 C8         -2.6714   -2.5837    0.0147 C.2       1 <0>         0.0384
     10 C9         -3.7528   -1.7598    0.0299 C.2       1 <0>        -0.1779
     11 S1         -2.9498   -0.1617    0.0384 S.3       1 <0>         0.0245
     12 C10        -2.8616   -4.0786    0.0081 C.3       1 <0>         0.2310
     13 N2         -2.8171   -4.5705   -1.3712 N.pl3     1 <0>        -0.6503
     14 N3         -2.9712   -5.9382   -1.6325 N.2       1 <0>        -0.2101
     15 C11        -2.9318   -6.3738   -2.8540 C.2       1 <0>         0.0511
     16 C12        -3.0941   -7.8137   -3.1291 C.ar      1 <0>        -0.0288
     17 C13        -3.2847   -8.7118   -2.0763 C.ar      1 <0>        -0.0797
     18 C14        -3.4411  -10.0563   -2.3407 C.ar      1 <0>        -0.1115
     19 C15        -3.3990  -10.5179   -3.6457 C.ar      1 <0>        -0.0311
     20 C16        -3.2046   -9.6335   -4.6935 C.ar      1 <0>        -0.1104
     21 C17        -3.0521   -8.2859   -4.4430 C.ar      1 <0>        -0.0890
     22 Cl1        -3.5900  -12.2127   -3.9695 Cl        1 <0>        -0.0695
     23 H1          3.3041    1.9738   -0.0197 H         1 <0>         0.1301
     24 H2          1.1570    3.1742    0.0077 H         1 <0>         0.1327
     25 H3         -0.9587    1.9197    0.0170 H         1 <0>         0.1270
     26 H4          1.2446   -1.7590   -0.0189 H         1 <0>         0.1356
     27 H5          3.3490   -0.4857   -0.0325 H         1 <0>         0.1324
     28 H6         -4.8050   -2.0029    0.0387 H         1 <0>         0.2032
     29 H7         -2.0667   -4.5486    0.5872 H         1 <0>         0.0767
     30 H8         -3.8271   -4.3240    0.4503 H         1 <0>         0.0775
     31 H9         -2.6809   -3.9491   -2.1035 H         1 <0>         0.3789
     32 H10        -2.7801   -5.6820   -3.6693 H         1 <0>         0.1136
     33 H11        -3.3132   -8.3536   -1.0578 H         1 <0>         0.1405
     34 H12        -3.5926  -10.7512   -1.5280 H         1 <0>         0.1356
     35 H13        -3.1720   -9.9999   -5.7089 H         1 <0>         0.1365
     36 H14        -2.9003   -7.5972   -5.2610 H         1 <0>         0.1357
@<TRIPOS>BOND
     1    1    6 ar
     2    1    2 ar
     3    1   23 1
     4    2    3 ar
     5    2   24 1
     6    3    4 ar
     7    3   25 1
     8    4    5 ar
     9    4    7 1
    10    5    6 ar
    11    5   26 1
    12    6   27 1
    13    7   11 1
    14    7    8 2
    15    8    9 1
    16    9   10 2
    17    9   12 1
    18   10   11 1
    19   10   28 1
    20   12   13 1
    21   12   29 1
    22   12   30 1
    23   13   14 1
    24   13   31 1
    25   14   15 2
    26   15   16 1
    27   15   32 1
    28   16   21 ar
    29   16   17 ar
    30   17   18 ar
    31   17   33 1
    32   18   19 ar
    33   18   34 1
    34   19   20 ar
    35   19   22 1
    36   20   21 ar
    37   20   35 1
    38   21   36 1
@<TRIPOS>MOLECULE
ZINC35154769
   33    34     0     0     0
SMALL
USER_CHARGES

@<TRIPOS>ATOM
      1 C1         -0.0187    1.5258    0.0104 C.3       1 <0>        -0.1858
      2 C2          0.0021   -0.0041    0.0020 C.3       1 <0>         0.0240
      3 C3         -1.4333   -0.5336    0.0129 C.3       1 <0>        -0.1843
      4 N1          0.6897   -0.4778   -1.2066 N.4       1 <0>        -0.5063
      5 C4          2.1002   -0.0703   -1.1590 C.3       1 <0>         0.0745
      6 C5          2.8056   -0.5563   -2.3989 C.2       1 <0>        -0.0073
      7 C6          2.9454    0.2687   -3.4701 C.2       1 <0>        -0.1822
      8 S1          3.8259   -0.8029   -4.5993 S.3       1 <0>         0.0964
      9 C7          3.9114   -2.2290   -3.5241 C.2       1 <0>         0.1838
     10 N2          3.2907   -1.7751   -2.4442 N.2       1 <0>        -0.5078
     11 C8          4.5162   -3.5553   -3.7709 C.ar      1 <0>        -0.0547
     12 C9          4.4663   -4.5421   -2.7852 C.ar      1 <0>        -0.0332
     13 C10         5.0321   -5.7776   -3.0205 C.ar      1 <0>        -0.1555
     14 C11         5.6499   -6.0399   -4.2330 C.ar      1 <0>         0.1391
     15 C12         5.7022   -5.0636   -5.2152 C.ar      1 <0>        -0.1500
     16 C13         5.1341   -3.8268   -4.9925 C.ar      1 <0>        -0.0533
     17 F1          6.2034   -7.2516   -4.4582 F         1 <0>        -0.1240
     18 H1          1.0039    1.9031    0.0027 H         1 <0>         0.0815
     19 H2         -0.5459    1.8868   -0.8726 H         1 <0>         0.0823
     20 H3         -0.5289    1.8773    0.9072 H         1 <0>         0.1073
     21 H4          0.5293   -0.3651    0.8851 H         1 <0>         0.1406
     22 H5         -1.9605   -0.1726   -0.8702 H         1 <0>         0.0813
     23 H6         -1.4185   -1.6235    0.0069 H         1 <0>         0.0818
     24 H7         -1.9435   -0.1821    0.9097 H         1 <0>         0.1079
     25 H8          0.6317   -1.4840   -1.2540 H         1 <0>         0.4310
     26 H9          2.1628    1.0167   -1.1079 H         1 <0>         0.1463
     27 H10         2.5740   -0.5034   -0.2781 H         1 <0>         0.1451
     28 H11         2.6158    1.2886   -3.6028 H         1 <0>         0.2104
     29 H12         3.9857   -4.3384   -1.8397 H         1 <0>         0.1453
     30 H13         4.9941   -6.5419   -2.2584 H         1 <0>         0.1502
     31 H14         6.1848   -5.2732   -6.1584 H         1 <0>         0.1519
     32 H15         5.1712   -3.0683   -5.7604 H         1 <0>         0.1394
     33 H16         0.2511   -0.0769   -2.0221 H         1 <0>         0.4241
@<TRIPOS>BOND
     1    1    2 1
     2    1   18 1
     3    1   19 1
     4    1   20 1
     5    2    3 1
     6    2    4 1
     7    2   21 1
     8    3   22 1
     9    3   23 1
    10    3   24 1
    11    4    5 1
    12    4   25 1
    13    4   33 1
    14    5    6 1
    15    5   26 1
    16    5   27 1
    17    6   10 1
    18    6    7 2
    19    7    8 1
    20    7   28 1
    21    8    9 1
    22    9   10 2
    23    9   11 1
    24   11   16 ar
    25   11   12 ar
    26   12   13 ar
    27   12   29 1
    28   13   14 ar
    29   13   30 1
    30   14   15 ar
    31   14   17 1
    32   15   16 ar
    33   15   31 1
    34   16   32 1
@<TRIPOS>MOLECULE
ZINC11595606
   30    31     0     0     0
SMALL
USER_CHARGES
(2R)-1-[2-(3,4-dichlorophenyl)thiazol-4-yl]propan-2-amine
@<TRIPOS>ATOM
      1 C1          0.7182   -0.4975   -1.2568 C.3       1 <0>        -0.1811
      2 C2          0.0021   -0.0041    0.0020 C.3       1 <0>         0.0376
      3 H1          0.5293   -0.3651    0.8851 H         1 <0>         0.1476
      4 C3         -1.4333   -0.5336    0.0129 C.3       1 <0>        -0.0675
      5 C4         -2.1001   -0.1511    1.3091 C.2       1 <0>         0.0141
      6 C5         -3.2709    0.5396    1.2945 C.2       1 <0>        -0.2007
      7 S1         -3.5786    0.7044    3.0486 S.3       1 <0>         0.0787
      8 C6         -2.1139   -0.1549    3.6082 C.2       1 <0>         0.1676
      9 N1         -1.5486   -0.4794    2.4538 N.2       1 <0>        -0.5054
     10 C7         -1.6563   -0.4296    4.9871 C.ar      1 <0>        -0.0204
     11 C8         -2.4125    0.0069    6.0761 C.ar      1 <0>        -0.0705
     12 C9         -1.9811   -0.2519    7.3604 C.ar      1 <0>        -0.0924
     13 C10        -0.8002   -0.9434    7.5712 C.ar      1 <0>        -0.0073
     14 C11        -0.0446   -1.3791    6.4945 C.ar      1 <0>        -0.0365
     15 C12        -0.4699   -1.1311    5.2045 C.ar      1 <0>        -0.0484
     16 Cl1         1.4347   -2.2454    6.7678 Cl        1 <0>        -0.0266
     17 Cl2        -0.2639   -1.2653    9.1906 Cl        1 <0>        -0.0226
     18 H2          1.7408   -0.1202   -1.2645 H         1 <0>         0.0846
     19 H3          0.7330   -1.5874   -1.2628 H         1 <0>         0.1083
     20 H4          0.1910   -0.1364   -2.1398 H         1 <0>         0.0826
     21 H5         -1.9862   -0.1019   -0.8214 H         1 <0>         0.1056
     22 H6         -1.4207   -1.6194   -0.0826 H         1 <0>         0.1265
     23 H7         -3.8542    0.8905    0.4561 H         1 <0>         0.2068
     24 H8         -3.3340    0.5461    5.9133 H         1 <0>         0.1449
     25 H9         -2.5656    0.0859    8.2034 H         1 <0>         0.1582
     26 H10         0.1167   -1.4754    4.3657 H         1 <0>         0.1540
     27 H11         0.9191    1.8392    0.0032 H         1 <0>         0.4388
     28 H12        -0.5563    1.8234   -0.7642 H         1 <0>         0.4333
     29 N2         -0.0294    1.4689    0.0323 N.4       1 <0>        -0.6451
     30 H13        -0.4837    1.7790    0.8993 H         1 <0>         0.4353
@<TRIPOS>BOND
     1    1    2 1
     2    1   18 1
     3    1   19 1
     4    1   20 1
     5    2    3 1
     6    2    4 1
     7    2   29 1
     8    4    5 1
     9    4   21 1
    10    4   22 1
    11    5    9 1
    12    5    6 2
    13    6    7 1
    14    6   23 1
    15    7    8 1
    16    8    9 2
    17    8   10 1
    18   10   15 ar
    19   10   11 ar
    20   11   12 ar
    21   11   24 1
    22   12   13 ar
    23   12   25 1
    24   13   14 ar
    25   13   17 1
    26   14   15 ar
    27   14   16 1
    28   15   26 1
    29   27   29 1
    30   28   29 1
    31   29   30 1
@<TRIPOS>MOLECULE
ZINC11595610
   30    31     0     0     0
SMALL
USER_CHARGES
(2S)-1-[2-(3,4-dichlorophenyl)thiazol-4-yl]propan-2-amine
@<TRIPOS>ATOM
      1 C1         -0.0127    1.0858    0.0080 C.3       1 <0>        -0.1857
      2 C2         -0.7288    1.5792    1.2668 C.3       1 <0>         0.0424
      3 H1         -0.7436    2.6691    1.2728 H         1 <0>         0.1361
      4 C3         -2.1642    1.0497    1.2777 C.3       1 <0>        -0.0642
      5 C4         -2.9064    1.6341    2.4518 C.2       1 <0>         0.0209
      6 C5         -4.0743    2.3015    2.2552 C.2       1 <0>        -0.1768
      7 S1         -4.4841    2.7518    3.9369 S.3       1 <0>         0.1055
      8 C6         -3.0590    2.0039    4.7159 C.2       1 <0>         0.1605
      9 N1         -2.4291    1.4949    3.6664 N.2       1 <0>        -0.5455
     10 C7         -2.6868    1.9595    6.1462 C.ar      1 <0>        -0.0168
     11 C8         -3.5057    2.5626    7.1022 C.ar      1 <0>        -0.0685
     12 C9         -3.1539    2.5184    8.4351 C.ar      1 <0>        -0.0879
     13 C10        -1.9906    1.8773    8.8263 C.ar      1 <0>        -0.0080
     14 C11        -1.1731    1.2770    7.8823 C.ar      1 <0>        -0.0353
     15 C12        -1.5186    1.3097    6.5458 C.ar      1 <0>        -0.0573
     16 Cl1         0.2839    0.4758    8.3814 Cl        1 <0>        -0.0270
     17 Cl2        -1.5546    1.8258   10.5059 Cl        1 <0>        -0.0199
     18 H2          0.0021   -0.0041    0.0020 H         1 <0>         0.0837
     19 H3          1.0099    1.4631    0.0003 H         1 <0>         0.0847
     20 H4         -0.5399    1.4469   -0.8751 H         1 <0>         0.1066
     21 H5         -2.6643    1.3363    0.3526 H         1 <0>         0.1276
     22 H6         -2.1499   -0.0370    1.3613 H         1 <0>         0.1051
     23 H7         -4.6070    2.5038    1.3378 H         1 <0>         0.2096
     24 H8         -4.4135    3.0628    6.7987 H         1 <0>         0.1470
     25 H9         -3.7870    2.9851    9.1752 H         1 <0>         0.1598
     26 H10        -0.8836    0.8373    5.8110 H         1 <0>         0.1448
     27 H11        -0.4339    1.4579    3.3007 H         1 <0>         0.4377
     28 H12         0.0090    0.0841    2.4746 H         1 <0>         0.4318
     29 N2          0.0045    1.1025    2.4527 N.4       1 <0>        -0.6443
     30 H13         0.9730    1.4409    2.4092 H         1 <0>         0.4336
@<TRIPOS>BOND
     1    1    2 1
     2    1   18 1
     3    1   19 1
     4    1   20 1
     5    2    3 1
     6    2    4 1
     7    2   29 1
     8    4    5 1
     9    4   21 1
    10    4   22 1
    11    5    9 1
    12    5    6 2
    13    6    7 1
    14    6   23 1
    15    7    8 1
    16    8    9 2
    17    8   10 1
    18   10   15 ar
    19   10   11 ar
    20   11   12 ar
    21   11   24 1
    22   12   13 ar
    23   12   25 1
    24   13   14 ar
    25   13   17 1
    26   14   15 ar
    27   14   16 1
    28   15   26 1
    29   27   29 1
    30   28   29 1
    31   29   30 1
@<TRIPOS>MOLECULE
ZINC40999612
   33    34     0     0     0
SMALL
USER_CHARGES

@<TRIPOS>ATOM
      1 C1         -0.0187    1.5258    0.0104 C.3       1 <0>        -0.1901
      2 C2          0.0021   -0.0041    0.0020 C.3       1 <0>        -0.0095
      3 N1          0.6897   -0.4778   -1.2066 N.4       1 <0>        -0.5089
      4 C3          0.7096   -1.9467   -1.2147 C.3       1 <0>         0.0779
      5 C4          1.4150   -2.4327   -2.4546 C.2       1 <0>        -0.0090
      6 C5          2.7374   -2.7435   -2.4078 C.2       1 <0>        -0.1820
      7 S1          3.0194   -3.2420   -4.1020 S.3       1 <0>         0.0961
      8 C6          1.3495   -2.9826   -4.6861 C.2       1 <0>         0.1851
      9 N2          0.7521   -2.5617   -3.5801 N.2       1 <0>        -0.5079
     10 C7          0.7856   -3.1877   -6.0374 C.ar      1 <0>        -0.0494
     11 C8         -0.5611   -2.9148   -6.2831 C.ar      1 <0>        -0.0402
     12 C9         -1.0821   -3.1078   -7.5451 C.ar      1 <0>        -0.1501
     13 C10        -0.2710   -3.5720   -8.5688 C.ar      1 <0>         0.1349
     14 C11         1.0664   -3.8450   -8.3302 C.ar      1 <0>        -0.1118
     15 C12         1.5991   -3.6494   -7.0729 C.ar      1 <0>        -0.0577
     16 C13         1.9420   -4.3503   -9.4478 C.3       1 <0>        -0.1224
     17 F1         -0.7863   -3.7595   -9.8035 F         1 <0>        -0.1226
     18 H1          1.0039    1.9031    0.0027 H         1 <0>         0.0805
     19 H2         -0.5459    1.8868   -0.8726 H         1 <0>         0.0807
     20 H3         -0.5289    1.8773    0.9072 H         1 <0>         0.1082
     21 H4          0.5293   -0.3651    0.8851 H         1 <0>         0.1325
     22 H5         -1.0205   -0.3814    0.0098 H         1 <0>         0.1326
     23 H6          0.2017   -0.1436   -2.0240 H         1 <0>         0.4310
     24 H7          1.2368   -2.3077   -0.3316 H         1 <0>         0.1458
     25 H8         -0.3130   -2.3239   -1.2069 H         1 <0>         0.1451
     26 H9          3.4269   -2.7008   -1.5776 H         1 <0>         0.2107
     27 H10        -1.1940   -2.5534   -5.4860 H         1 <0>         0.1450
     28 H11        -2.1240   -2.8973   -7.7362 H         1 <0>         0.1504
     29 H12         2.6427   -3.8578   -6.8891 H         1 <0>         0.1388
     30 H13         2.3948   -3.5047   -9.9653 H         1 <0>         0.0830
     31 H14         2.7257   -4.9863   -9.0361 H         1 <0>         0.0787
     32 H15         1.3388   -4.9256  -10.1502 H         1 <0>         0.0788
     33 H16         1.6363   -0.1286   -1.2138 H         1 <0>         0.4260
@<TRIPOS>BOND
     1    1    2 1
     2    1   18 1
     3    1   19 1
     4    1   20 1
     5    2    3 1
     6    2   21 1
     7    2   22 1
     8    3    4 1
     9    3   23 1
    10    3   33 1
    11    4    5 1
    12    4   24 1
    13    4   25 1
    14    5    9 1
    15    5    6 2
    16    6    7 1
    17    6   26 1
    18    7    8 1
    19    8    9 2
    20    8   10 1
    21   10   15 ar
    22   10   11 ar
    23   11   12 ar
    24   11   27 1
    25   12   13 ar
    26   12   28 1
    27   13   14 ar
    28   13   17 1
    29   14   15 ar
    30   14   16 1
    31   15   29 1
    32   16   30 1
    33   16   31 1
    34   16   32 1
@<TRIPOS>MOLECULE
ZINC35154780
   36    37     0     0     0
SMALL
USER_CHARGES

@<TRIPOS>ATOM
      1 C1         -0.0187    1.5258    0.0104 C.3       1 <0>        -0.1790
      2 C2          0.0021   -0.0041    0.0020 C.3       1 <0>         0.0553
      3 C3          0.7421   -0.5109    1.2415 C.3       1 <0>        -0.1785
      4 C4         -1.4333   -0.5336    0.0129 C.3       1 <0>        -0.1768
      5 N1          0.6897   -0.4778   -1.2066 N.4       1 <0>        -0.5023
      6 C5          2.0678    0.0307   -1.2170 C.3       1 <0>         0.0687
      7 C6          2.7732   -0.4553   -2.4569 C.2       1 <0>        -0.0055
      8 C7          2.8244    0.3320   -3.5638 C.2       1 <0>        -0.1826
      9 S1          3.7497   -0.7206   -4.6749 S.3       1 <0>         0.0959
     10 C8          3.9666   -2.0907   -3.5468 C.2       1 <0>         0.1835
     11 N2          3.3437   -1.6374   -2.4680 N.2       1 <0>        -0.5072
     12 C9          4.6590   -3.3798   -3.7585 C.ar      1 <0>        -0.0543
     13 C10         4.7068   -4.3256   -2.7332 C.ar      1 <0>        -0.0333
     14 C11         5.3540   -5.5265   -2.9359 C.ar      1 <0>        -0.1555
     15 C12         5.9566   -5.7947   -4.1547 C.ar      1 <0>         0.1389
     16 C13         5.9120   -4.8590   -5.1761 C.ar      1 <0>        -0.1499
     17 C14         5.2621   -3.6575   -4.9860 C.ar      1 <0>        -0.0534
     18 F1          6.5900   -6.9722   -4.3477 F         1 <0>        -0.1241
     19 H1          1.0039    1.9031    0.0027 H         1 <0>         0.0824
     20 H2         -0.5459    1.8868   -0.8726 H         1 <0>         0.0827
     21 H3         -0.5289    1.8773    0.9072 H         1 <0>         0.1069
     22 H4          0.2319   -0.1594    2.1383 H         1 <0>         0.1062
     23 H5          0.7568   -1.6008    1.2356 H         1 <0>         0.0831
     24 H6          1.7647   -0.1336    1.2338 H         1 <0>         0.0826
     25 H7         -1.9605   -0.1726   -0.8702 H         1 <0>         0.0819
     26 H8         -1.4185   -1.6235    0.0069 H         1 <0>         0.0821
     27 H9         -1.9435   -0.1821    0.9097 H         1 <0>         0.1075
     28 H10         0.7033   -1.4867   -1.2121 H         1 <0>         0.4295
     29 H11         2.0530    1.1205   -1.2110 H         1 <0>         0.1469
     30 H12         2.5950   -0.3304   -0.3340 H         1 <0>         0.1473
     31 H13         2.4186    1.3194   -3.7271 H         1 <0>         0.2103
     32 H14         4.2381   -4.1173   -1.7828 H         1 <0>         0.1453
     33 H15         5.3916   -6.2590   -2.1432 H         1 <0>         0.1501
     34 H16         6.3832   -5.0730   -6.1240 H         1 <0>         0.1519
     35 H17         5.2238   -2.9310   -5.7843 H         1 <0>         0.1394
     36 H18         0.2017   -0.1436   -2.0240 H         1 <0>         0.4244
@<TRIPOS>BOND
     1    1    2 1
     2    1   19 1
     3    1   20 1
     4    1   21 1
     5    2    3 1
     6    2    4 1
     7    2    5 1
     8    3   22 1
     9    3   23 1
    10    3   24 1
    11    4   25 1
    12    4   26 1
    13    4   27 1
    14    5    6 1
    15    5   28 1
    16    5   36 1
    17    6    7 1
    18    6   29 1
    19    6   30 1
    20    7   11 1
    21    7    8 2
    22    8    9 1
    23    8   31 1
    24    9   10 1
    25   10   11 2
    26   10   12 1
    27   12   17 ar
    28   12   13 ar
    29   13   14 ar
    30   13   32 1
    31   14   15 ar
    32   14   33 1
    33   15   16 ar
    34   15   18 1
    35   16   17 ar
    36   16   34 1
    37   17   35 1
@<TRIPOS>MOLECULE
ZINC94523913
   34    36     0     0     0
SMALL
USER_CHARGES

@<TRIPOS>ATOM
      1 C1         -0.0187    1.5258    0.0104 C.3       1 <0>        -0.1745
      2 C2          0.0021   -0.0041    0.0020 C.3       1 <0>         0.1093
      3 H1         -1.0205   -0.3814    0.0098 H         1 <0>         0.1574
      4 C3          0.7074   -0.4901   -1.2379 C.2       1 <0>         0.0427
      5 C4          1.7603   -1.3438   -1.1319 C.2       1 <0>        -0.2656
      6 S1          2.1787   -1.5671   -2.8564 S.3       1 <0>         0.0975
      7 C5          0.9092   -0.5021   -3.5280 C.2       1 <0>         0.2040
      8 N1          0.3031   -0.0943   -2.4218 N.2       1 <0>        -0.5047
      9 C6          0.6120   -0.1700   -4.9379 C.ar      1 <0>        -0.0553
     10 C7         -0.4344    0.6998   -5.2474 C.ar      1 <0>        -0.0526
     11 C8         -0.7066    1.0056   -6.5649 C.ar      1 <0>        -0.1169
     12 C9          0.0551    0.4515   -7.5783 C.ar      1 <0>        -0.0064
     13 C10         1.0936   -0.4120   -7.2783 C.ar      1 <0>        -0.1215
     14 C11         1.3804   -0.7206   -5.9645 C.ar      1 <0>        -0.0746
     15 C12        -0.2482    0.7895   -9.0153 C.3       1 <0>        -0.1365
     16 C13         0.4882   -0.0022  -10.0978 C.3       1 <0>        -0.1721
     17 C14         0.8589    1.4583   -9.8325 C.3       1 <0>        -0.1620
     18 N2          0.7126   -0.4907    1.1921 N.4       1 <0>        -0.6348
     19 H2          1.0039    1.9031    0.0027 H         1 <0>         0.0804
     20 H3         -0.5459    1.8868   -0.8726 H         1 <0>         0.1150
     21 H4         -0.5289    1.8773    0.9072 H         1 <0>         0.0879
     22 H5          2.2175   -1.7689   -0.2507 H         1 <0>         0.1973
     23 H6         -1.0301    1.1325   -4.4572 H         1 <0>         0.1376
     24 H7         -1.5162    1.6786   -6.8057 H         1 <0>         0.1377
     25 H8          1.6842   -0.8415   -8.0740 H         1 <0>         0.1384
     26 H9          2.1946   -1.3907   -5.7313 H         1 <0>         0.1290
     27 H10        -1.2761    1.0881   -9.2211 H         1 <0>         0.1207
     28 H11         1.1920   -0.7675   -9.7706 H         1 <0>         0.1003
     29 H12        -0.0552   -0.2247  -11.0161 H         1 <0>         0.1043
     30 H13         0.5594    2.1967  -10.5762 H         1 <0>         0.1042
     31 H14         1.8066    1.6538   -9.3308 H         1 <0>         0.0982
     32 H15         0.2403   -0.1653    2.0223 H         1 <0>         0.4437
     33 H16         0.7262   -1.4996    1.1866 H         1 <0>         0.4367
     34 H17         1.6592   -0.1415    1.1850 H         1 <0>         0.4350
@<TRIPOS>BOND
     1    1    2 1
     2    1   19 1
     3    1   20 1
     4    1   21 1
     5    2    3 1
     6    2    4 1
     7    2   18 1
     8    4    8 1
     9    4    5 2
    10    5    6 1
    11    5   22 1
    12    6    7 1
    13    7    8 2
    14    7    9 1
    15    9   14 ar
    16    9   10 ar
    17   10   11 ar
    18   10   23 1
    19   11   12 ar
    20   11   24 1
    21   12   13 ar
    22   12   15 1
    23   13   14 ar
    24   13   25 1
    25   14   26 1
    26   15   17 1
    27   15   16 1
    28   15   27 1
    29   16   17 1
    30   16   28 1
    31   16   29 1
    32   17   30 1
    33   17   31 1
    34   18   32 1
    35   18   33 1
    36   18   34 1
@<TRIPOS>MOLECULE
ZINC40999561
   26    27     0     0     0
SMALL
USER_CHARGES

@<TRIPOS>ATOM
      1 C1         -0.0168    1.3913    0.0097 C.ar      1 <0>        -0.0870
      2 C2          1.1702    2.0943    0.0021 C.ar      1 <0>        -0.0481
      3 C3          2.3776    1.4189   -0.0130 C.ar      1 <0>        -0.0219
      4 C4          2.4032    0.0356   -0.0212 C.ar      1 <0>        -0.0529
      5 C5          1.2232   -0.6793   -0.0142 C.ar      1 <0>        -0.0669
      6 C6          0.0021   -0.0041    0.0020 C.ar      1 <0>         0.0144
      7 C7         -1.2664   -0.7639    0.0105 C.2       1 <0>         0.1542
      8 N1         -1.4618   -2.0750    0.0109 N.2       1 <0>        -0.4921
      9 C8         -2.6714   -2.5837    0.0192 C.2       1 <0>        -0.0175
     10 C9         -3.7528   -1.7598    0.0276 C.2       1 <0>        -0.1699
     11 S1         -2.9498   -0.1617    0.0311 S.3       1 <0>         0.1265
     12 C10        -2.8615   -4.0787    0.0188 C.3       1 <0>         0.0793
     13 N2         -2.8131   -4.5781   -1.3619 N.4       1 <0>        -0.6353
     14 N3          3.6474    2.1795   -0.0211 N.pl3     1 <0>         0.0229
     15 O1          3.6281    3.3883   -0.0144 O.2       1 <0>        -0.1400
     16 O2          4.7040    1.5919   -0.0343 O.3       1 <0>        -0.1415
     17 H1         -0.9586    1.9196    0.0260 H         1 <0>         0.1522
     18 H2          1.1570    3.1742    0.0077 H         1 <0>         0.1686
     19 H3          3.3490   -0.4857   -0.0333 H         1 <0>         0.1670
     20 H4          1.2446   -1.7590   -0.0213 H         1 <0>         0.1583
     21 H5         -4.8050   -2.0029    0.0345 H         1 <0>         0.2154
     22 H6         -2.0682   -4.5460    0.6022 H         1 <0>         0.1490
     23 H7         -3.8282   -4.3221    0.4595 H         1 <0>         0.1505
     24 H8         -3.5474   -4.1456   -1.9019 H         1 <0>         0.4342
     25 H9         -1.9182   -4.3528   -1.7698 H         1 <0>         0.4385
     26 H10        -2.9403   -5.5791   -1.3621 H         1 <0>         0.4420
@<TRIPOS>BOND
     1    1    6 ar
     2    1    2 ar
     3    1   17 1
     4    2    3 ar
     5    2   18 1
     6    3    4 ar
     7    3   14 1
     8    4    5 ar
     9    4   19 1
    10    5    6 ar
    11    5   20 1
    12    6    7 1
    13    7   11 1
    14    7    8 2
    15    8    9 1
    16    9   10 2
    17    9   12 1
    18   10   11 1
    19   10   21 1
    20   12   13 1
    21   12   22 1
    22   12   23 1
    23   13   24 1
    24   13   25 1
    25   13   26 1
    26   14   15 2
    27   14   16 1
@<TRIPOS>MOLECULE
ZINC42289033
   24    25     0     0     0
SMALL
USER_CHARGES

@<TRIPOS>ATOM
      1 C1         -0.0166    1.3752    0.0096 C.ar      1 <0>        -0.0998
      2 C2          1.1702    2.0868    0.0021 C.ar      1 <0>        -0.0814
      3 C3          2.3826    1.4214   -0.0135 C.ar      1 <0>        -0.0822
      4 C4          2.4157    0.0410   -0.0216 C.ar      1 <0>        -0.0771
      5 C5          1.2216   -0.6825   -0.0136 C.ar      1 <0>        -0.0058
      6 C6          0.0021   -0.0041    0.0020 C.ar      1 <0>        -0.0614
      7 C7          1.2489   -2.1607   -0.0228 C.2       1 <0>         0.1513
      8 N1          0.2402   -3.0209   -0.0230 N.2       1 <0>        -0.4962
      9 C8          0.4495   -4.3164   -0.0323 C.2       1 <0>        -0.0227
     10 C9          1.7211   -4.7972   -0.0420 C.2       1 <0>        -0.2106
     11 S1          2.6513   -3.2697   -0.0444 S.3       1 <0>         0.1475
     12 C10        -0.7178   -5.2695   -0.0318 C.3       1 <0>         0.0788
     13 N2         -1.1661   -5.4940    1.3490 N.4       1 <0>        -0.6350
     14 Br1         4.0741   -0.8673   -0.0441 Br        1 <0>         0.0036
     15 H1         -0.9598    1.9010    0.0259 H         1 <0>         0.1452
     16 H2          1.1497    3.1666    0.0081 H         1 <0>         0.1469
     17 H3          3.3053    1.9827   -0.0196 H         1 <0>         0.1484
     18 H4         -0.9251   -0.5578    0.0082 H         1 <0>         0.1448
     19 H5          2.0722   -5.8185   -0.0499 H         1 <0>         0.2038
     20 H6         -1.5348   -4.8438   -0.6143 H         1 <0>         0.1451
     21 H7         -0.4125   -6.2181   -0.4734 H         1 <0>         0.1467
     22 H8         -1.4487   -4.6159    1.7578 H         1 <0>         0.4376
     23 H9         -1.9476   -6.1322    1.3494 H         1 <0>         0.4393
     24 H10        -0.4098   -5.8881    1.8883 H         1 <0>         0.4334
@<TRIPOS>BOND
     1    1    6 ar
     2    1    2 ar
     3    1   15 1
     4    2    3 ar
     5    2   16 1
     6    3    4 ar
     7    3   17 1
     8    4    5 ar
     9    4   14 1
    10    5    6 ar
    11    5    7 1
    12    6   18 1
    13    7   11 1
    14    7    8 2
    15    8    9 1
    16    9   10 2
    17    9   12 1
    18   10   11 1
    19   10   19 1
    20   12   13 1
    21   12   20 1
    22   12   21 1
    23   13   22 1
    24   13   23 1
    25   13   24 1
@<TRIPOS>MOLECULE
ZINC88567490
   34    35     0     0     0
SMALL
USER_CHARGES

@<TRIPOS>ATOM
      1 C1         -0.0178    1.4648    0.0101 C.3       1 <0>        -0.0467
      2 N1          0.0021   -0.0041    0.0020 N.4       1 <0>        -0.5086
      3 C2          0.6897   -0.4778   -1.2066 C.3       1 <0>         0.0769
      4 C3          0.7101   -1.9847   -1.2149 C.2       1 <0>        -0.0101
      5 C4         -0.2481   -2.6750   -1.8886 C.2       1 <0>        -0.1842
      6 S1          0.2638   -4.3567   -1.5592 S.3       1 <0>         0.0944
      7 C5          1.6939   -3.9576   -0.5629 C.2       1 <0>         0.1863
      8 N2          1.6558   -2.6326   -0.5763 N.2       1 <0>        -0.5092
      9 C6          2.6617   -4.8620    0.0944 C.ar      1 <0>        -0.0379
     10 C7          3.7171   -4.3360    0.8406 C.ar      1 <0>        -0.0641
     11 C8          4.6167   -5.1853    1.4513 C.ar      1 <0>        -0.0996
     12 C9          4.4744   -6.5556    1.3247 C.ar      1 <0>        -0.0528
     13 C10         3.4305   -7.0835    0.5860 C.ar      1 <0>        -0.0943
     14 C11         2.5202   -6.2453   -0.0242 C.ar      1 <0>        -0.0846
     15 C12         5.4610   -7.4773    1.9941 C.3       1 <0>         0.0916
     16 O1          5.0025   -7.7907    3.3108 O.3       1 <0>        -0.3856
     17 C13         5.8706   -8.6638    4.0361 C.3       1 <0>         0.0287
     18 H1          1.0047    1.8421    0.0024 H         1 <0>         0.1251
     19 H2         -0.5450    1.8259   -0.8730 H         1 <0>         0.1250
     20 H3         -0.5280    1.8163    0.9069 H         1 <0>         0.1277
     21 H4          0.4901   -0.3383    0.8195 H         1 <0>         0.4334
     22 H5          0.1625   -0.1167   -2.0897 H         1 <0>         0.1456
     23 H6          1.7123   -0.1005   -1.2143 H         1 <0>         0.1449
     24 H7         -1.0862   -2.3092   -2.4632 H         1 <0>         0.2102
     25 H8          3.8297   -3.2665    0.9395 H         1 <0>         0.1369
     26 H9          5.4339   -4.7795    2.0291 H         1 <0>         0.1375
     27 H10         3.3251   -8.1541    0.4907 H         1 <0>         0.1392
     28 H11         1.7028   -6.6586   -0.5963 H         1 <0>         0.1311
     29 H12         5.5527   -8.3951    1.4133 H         1 <0>         0.0660
     30 H13         6.4327   -6.9872    2.0548 H         1 <0>         0.0656
     31 H14         5.9708   -9.6062    3.4976 H         1 <0>         0.0461
     32 H15         6.8508   -8.1983    4.1392 H         1 <0>         0.0456
     33 H16         5.4525   -8.8529    5.0248 H         1 <0>         0.0915
     34 H17        -0.9445   -0.3533    0.0092 H         1 <0>         0.4284
@<TRIPOS>BOND
     1    1    2 1
     2    1   18 1
     3    1   19 1
     4    1   20 1
     5    2    3 1
     6    2   21 1
     7    2   34 1
     8    3    4 1
     9    3   22 1
    10    3   23 1
    11    4    8 1
    12    4    5 2
    13    5    6 1
    14    5   24 1
    15    6    7 1
    16    7    8 2
    17    7    9 1
    18    9   14 ar
    19    9   10 ar
    20   10   11 ar
    21   10   25 1
    22   11   12 ar
    23   11   26 1
    24   12   13 ar
    25   12   15 1
    26   13   14 ar
    27   13   27 1
    28   14   28 1
    29   15   16 1
    30   15   29 1
    31   15   30 1
    32   16   17 1
    33   17   31 1
    34   17   32 1
    35   17   33 1
@<TRIPOS>MOLECULE
ZINC94523914
   34    36     0     0     0
SMALL
USER_CHARGES

@<TRIPOS>ATOM
      1 C1         -0.0187    1.5258    0.0104 C.3       1 <0>        -0.1770
      2 C2          0.0021   -0.0041    0.0020 C.3       1 <0>         0.1171
      3 H1         -1.0205   -0.3814    0.0098 H         1 <0>         0.1529
      4 C3          0.7309   -0.5033    1.2229 C.2       1 <0>        -0.0063
      5 C4          0.1263   -1.3835    2.0645 C.2       1 <0>        -0.1801
      6 S1          1.4142   -1.6113    3.2844 S.3       1 <0>         0.0908
      7 C5          2.6137   -0.5124    2.5423 C.2       1 <0>         0.1901
      8 N1          1.9522   -0.0933    1.4727 N.2       1 <0>        -0.5179
      9 C6          3.9781   -0.1680    2.9965 C.ar      1 <0>        -0.0510
     10 C7          4.7554    0.7289    2.2626 C.ar      1 <0>        -0.0574
     11 C8          6.0277    1.0460    2.6918 C.ar      1 <0>        -0.1169
     12 C9          6.5334    0.4765    3.8468 C.ar      1 <0>        -0.0084
     13 C10         5.7680   -0.4138    4.5787 C.ar      1 <0>        -0.1198
     14 C11         4.4917   -0.7341    4.1640 C.ar      1 <0>        -0.0762
     15 C12         7.9242    0.8270    4.3094 C.3       1 <0>        -0.1367
     16 C13         8.5060    0.0209    5.4724 C.3       1 <0>        -0.1721
     17 C14         8.0682    1.4707    5.6899 C.3       1 <0>        -0.1621
     18 N2          0.6897   -0.4778   -1.2066 N.4       1 <0>        -0.6339
     19 H2          1.0039    1.9031    0.0027 H         1 <0>         0.0898
     20 H3         -0.5459    1.8868   -0.8726 H         1 <0>         0.0861
     21 H4         -0.5289    1.8773    0.9072 H         1 <0>         0.1035
     22 H5         -0.8587   -1.8231    2.0112 H         1 <0>         0.2098
     23 H6          4.3621    1.1736    1.3604 H         1 <0>         0.1344
     24 H7          6.6304    1.7400    2.1247 H         1 <0>         0.1364
     25 H8          6.1687   -0.8552    5.4793 H         1 <0>         0.1382
     26 H9          3.8933   -1.4253    4.7390 H         1 <0>         0.1292
     27 H10         8.6114    1.1521    3.5283 H         1 <0>         0.1202
     28 H11         7.8829   -0.7630    5.9029 H         1 <0>         0.1004
     29 H12         9.5763   -0.1846    5.4565 H         1 <0>         0.1043
     30 H13         8.8505    2.2190    5.8172 H         1 <0>         0.1042
     31 H14         7.1571    1.6406    6.2636 H         1 <0>         0.0984
     32 H15         1.6363   -0.1286   -1.2138 H         1 <0>         0.4380
     33 H16         0.7033   -1.4867   -1.2121 H         1 <0>         0.4346
     34 H17         0.2017   -0.1436   -2.0240 H         1 <0>         0.4371
@<TRIPOS>BOND
     1    1    2 1
     2    1   19 1
     3    1   20 1
     4    1   21 1
     5    2    3 1
     6    2    4 1
     7    2   18 1
     8    4    8 1
     9    4    5 2
    10    5    6 1
    11    5   22 1
    12    6    7 1
    13    7    8 2
    14    7    9 1
    15    9   14 ar
    16    9   10 ar
    17   10   11 ar
    18   10   23 1
    19   11   12 ar
    20   11   24 1
    21   12   13 ar
    22   12   15 1
    23   13   14 ar
    24   13   25 1
    25   14   26 1
    26   15   17 1
    27   15   16 1
    28   15   27 1
    29   16   17 1
    30   16   28 1
    31   16   29 1
    32   17   30 1
    33   17   31 1
    34   18   32 1
    35   18   33 1
    36   18   34 1
@<TRIPOS>MOLECULE
ZINC40999650
   36    37     0     0     0
SMALL
USER_CHARGES

@<TRIPOS>ATOM
      1 C1         -0.0187    1.5258    0.0104 C.3       1 <0>        -0.1564
      2 C2          0.0021   -0.0041    0.0020 C.3       1 <0>        -0.1515
      3 C3         -1.4333   -0.5336    0.0129 C.3       1 <0>        -0.0102
      4 N1         -1.4134   -2.0025    0.0048 N.4       1 <0>        -0.5084
      5 C4         -2.7915   -2.5110    0.0152 C.3       1 <0>         0.0782
      6 C5         -2.7711   -4.0178    0.0069 C.2       1 <0>        -0.0086
      7 C6         -2.8583   -4.7064    1.1760 C.2       1 <0>        -0.1847
      8 S1         -2.7866   -6.3890    0.5739 S.3       1 <0>         0.0913
      9 C7         -2.6487   -5.9924   -1.1641 C.2       1 <0>         0.1882
     10 N2         -2.6745   -4.6675   -1.1290 N.2       1 <0>        -0.5098
     11 C8         -2.5406   -6.8985   -2.3277 C.ar      1 <0>        -0.0392
     12 C9         -2.4351   -6.3741   -3.6168 C.ar      1 <0>        -0.0699
     13 C10        -2.3346   -7.2248   -4.6981 C.ar      1 <0>        -0.1153
     14 C11        -2.3381   -8.5952   -4.5068 C.ar      1 <0>        -0.0851
     15 C12        -2.4429   -9.1213   -3.2317 C.ar      1 <0>        -0.0780
     16 C13        -2.5378   -8.2812   -2.1411 C.ar      1 <0>        -0.0866
     17 C14        -2.4470  -10.6151   -3.0327 C.3       1 <0>        -0.1224
     18 H1          1.0039    1.9031    0.0027 H         1 <0>         0.0776
     19 H2         -0.5459    1.8868   -0.8726 H         1 <0>         0.0676
     20 H3         -0.5289    1.8773    0.9072 H         1 <0>         0.0674
     21 H4          0.5123   -0.3556   -0.8948 H         1 <0>         0.0863
     22 H5          0.5293   -0.3651    0.8851 H         1 <0>         0.0861
     23 H6         -1.9435   -0.1821    0.9097 H         1 <0>         0.1330
     24 H7         -1.9605   -0.1726   -0.8702 H         1 <0>         0.1331
     25 H8         -0.9411   -2.3279   -0.8254 H         1 <0>         0.4311
     26 H9         -3.3017   -2.1594    0.9120 H         1 <0>         0.1456
     27 H10        -3.3187   -2.1499   -0.8678 H         1 <0>         0.1448
     28 H11        -2.9462   -4.3392    2.1878 H         1 <0>         0.2100
     29 H12        -2.4325   -5.3047   -3.7675 H         1 <0>         0.1339
     30 H13        -2.2532   -6.8203   -5.6962 H         1 <0>         0.1368
     31 H14        -2.2592   -9.2569   -5.3566 H         1 <0>         0.1353
     32 H15        -2.6146   -8.6932   -1.1457 H         1 <0>         0.1282
     33 H16        -1.4241  -10.9664   -2.8970 H         1 <0>         0.0785
     34 H17        -3.0362  -10.8624   -2.1497 H         1 <0>         0.0715
     35 H18        -2.8835  -11.0970   -3.9075 H         1 <0>         0.0754
     36 H19        -0.9254   -2.3367    0.8222 H         1 <0>         0.4261
@<TRIPOS>BOND
     1    1    2 1
     2    1   18 1
     3    1   19 1
     4    1   20 1
     5    2    3 1
     6    2   21 1
     7    2   22 1
     8    3    4 1
     9    3   23 1
    10    3   24 1
    11    4    5 1
    12    4   25 1
    13    4   36 1
    14    5    6 1
    15    5   26 1
    16    5   27 1
    17    6   10 1
    18    6    7 2
    19    7    8 1
    20    7   28 1
    21    8    9 1
    22    9   10 2
    23    9   11 1
    24   11   16 ar
    25   11   12 ar
    26   12   13 ar
    27   12   29 1
    28   13   14 ar
    29   13   30 1
    30   14   15 ar
    31   14   31 1
    32   15   16 ar
    33   15   17 1
    34   16   32 1
    35   17   33 1
    36   17   34 1
    37   17   35 1
@<TRIPOS>MOLECULE
ZINC43393120
   39    40     0     0     0
SMALL
USER_CHARGES

@<TRIPOS>ATOM
      1 C1         -0.0187    1.5258    0.0104 C.3       1 <0>        -0.1564
      2 C2          0.0021   -0.0041    0.0020 C.3       1 <0>        -0.1515
      3 C3         -1.4333   -0.5336    0.0129 C.3       1 <0>        -0.0102
      4 N1         -1.4134   -2.0025    0.0048 N.4       1 <0>        -0.5085
      5 C4         -2.7915   -2.5110    0.0152 C.3       1 <0>         0.0783
      6 C5         -2.7711   -4.0178    0.0069 C.2       1 <0>        -0.0086
      7 C6         -2.8583   -4.7064    1.1760 C.2       1 <0>        -0.1850
      8 S1         -2.7866   -6.3890    0.5739 S.3       1 <0>         0.0917
      9 C7         -2.6487   -5.9924   -1.1641 C.2       1 <0>         0.1889
     10 N2         -2.6745   -4.6675   -1.1290 N.2       1 <0>        -0.5098
     11 C8         -2.5406   -6.8985   -2.3277 C.ar      1 <0>        -0.0345
     12 C9         -2.4351   -6.3742   -3.6167 C.ar      1 <0>        -0.0715
     13 C10        -2.3346   -7.2250   -4.6981 C.ar      1 <0>        -0.0794
     14 C11        -2.3386   -8.5952   -4.5068 C.ar      1 <0>        -0.0874
     15 C12        -2.4434   -9.1214   -3.2315 C.ar      1 <0>        -0.0731
     16 C13        -2.5378   -8.2814   -2.1411 C.ar      1 <0>        -0.0929
     17 C14        -2.4474  -10.6152   -3.0326 C.3       1 <0>        -0.1219
     18 C15        -2.2206   -6.6605   -6.0908 C.3       1 <0>        -0.1196
     19 H1          1.0039    1.9031    0.0027 H         1 <0>         0.0776
     20 H2         -0.5459    1.8868   -0.8726 H         1 <0>         0.0676
     21 H3         -0.5289    1.8773    0.9072 H         1 <0>         0.0674
     22 H4          0.5123   -0.3556   -0.8948 H         1 <0>         0.0863
     23 H5          0.5293   -0.3651    0.8851 H         1 <0>         0.0861
     24 H6         -1.9435   -0.1821    0.9097 H         1 <0>         0.1330
     25 H7         -1.9605   -0.1726   -0.8702 H         1 <0>         0.1331
     26 H8         -0.9411   -2.3279   -0.8254 H         1 <0>         0.4311
     27 H9         -3.3017   -2.1594    0.9120 H         1 <0>         0.1455
     28 H10        -3.3187   -2.1499   -0.8678 H         1 <0>         0.1447
     29 H11        -2.9462   -4.3392    2.1878 H         1 <0>         0.2099
     30 H12        -2.4325   -5.3047   -3.7673 H         1 <0>         0.1337
     31 H13        -2.2600   -9.2569   -5.3567 H         1 <0>         0.1348
     32 H14        -2.6143   -8.6933   -1.1457 H         1 <0>         0.1278
     33 H15        -1.4246  -10.9665   -2.8968 H         1 <0>         0.0785
     34 H16        -3.0367  -10.8625   -2.1496 H         1 <0>         0.0717
     35 H17        -2.8840  -11.0971   -3.9074 H         1 <0>         0.0752
     36 H18        -1.1692   -6.5149   -6.3388 H         1 <0>         0.0768
     37 H19        -2.6689   -7.3544   -6.8018 H         1 <0>         0.0744
     38 H20        -2.7411   -5.7041   -6.1389 H         1 <0>         0.0702
     39 H21        -0.9254   -2.3367    0.8222 H         1 <0>         0.4261
@<TRIPOS>BOND
     1    1    2 1
     2    1   19 1
     3    1   20 1
     4    1   21 1
     5    2    3 1
     6    2   22 1
     7    2   23 1
     8    3    4 1
     9    3   24 1
    10    3   25 1
    11    4    5 1
    12    4   26 1
    13    4   39 1
    14    5    6 1
    15    5   27 1
    16    5   28 1
    17    6   10 1
    18    6    7 2
    19    7    8 1
    20    7   29 1
    21    8    9 1
    22    9   10 2
    23    9   11 1
    24   11   16 ar
    25   11   12 ar
    26   12   13 ar
    27   12   30 1
    28   13   14 ar
    29   13   18 1
    30   14   15 ar
    31   14   31 1
    32   15   16 ar
    33   15   17 1
    34   16   32 1
    35   17   33 1
    36   17   34 1
    37   17   35 1
    38   18   36 1
    39   18   37 1
    40   18   38 1
@<TRIPOS>MOLECULE
ZINC70842439
   33    34     0     0     0
SMALL
USER_CHARGES

@<TRIPOS>ATOM
      1 C1         -0.0184    1.5028    0.0103 C.3       1 <0>        -0.1293
      2 C2          0.0021   -0.0041    0.0020 C.ar      1 <0>        -0.0465
      3 C3          0.0057   -0.6863   -1.2018 C.ar      1 <0>        -0.1193
      4 C4          0.0249   -2.0656   -1.2163 C.ar      1 <0>        -0.0647
      5 C5          0.0405   -2.7729   -0.0133 C.ar      1 <0>        -0.0471
      6 C6          0.0368   -2.0789    1.1972 C.ar      1 <0>        -0.0806
      7 C7          0.0229   -0.6991    1.1979 C.ar      1 <0>        -0.0806
      8 C8          0.0250    0.0522    2.5042 C.3       1 <0>        -0.1239
      9 C9          0.0606   -4.2514   -0.0214 C.2       1 <0>         0.1912
     10 N1          0.0722   -5.0870   -1.0504 N.2       1 <0>        -0.5180
     11 C10         0.0898   -6.3870   -0.8724 C.2       1 <0>        -0.0064
     12 C11         0.0964   -6.8982    0.3874 C.2       1 <0>        -0.1803
     13 S1          0.0837   -5.3936    1.3541 S.3       1 <0>         0.0900
     14 C12         0.1021   -7.3116   -2.0623 C.3       1 <0>         0.1173
     15 H1          0.0261   -8.3440   -1.7210 H         1 <0>         0.1528
     16 C13        -1.0838   -6.9869   -2.9729 C.3       1 <0>        -0.1770
     17 N2          1.3552   -7.1334   -2.8080 N.4       1 <0>        -0.6339
     18 H2          1.0042    1.8801    0.0026 H         1 <0>         0.0813
     19 H3         -0.5455    1.8639   -0.8728 H         1 <0>         0.0747
     20 H4         -0.5286    1.8543    0.9071 H         1 <0>         0.0771
     21 H5         -0.0068   -0.1378   -2.1321 H         1 <0>         0.1360
     22 H6          0.0273   -2.5969   -2.1566 H         1 <0>         0.1329
     23 H7          0.0489   -2.6204    2.1315 H         1 <0>         0.1283
     24 H8         -1.0020    0.2194    2.8289 H         1 <0>         0.0788
     25 H9          0.5540   -0.5310    3.2579 H         1 <0>         0.0715
     26 H10         0.5246    1.0118    2.3707 H         1 <0>         0.0771
     27 H11         0.1097   -7.9276    0.7138 H         1 <0>         0.2097
     28 H12        -1.0749   -7.6557   -3.8335 H         1 <0>         0.0861
     29 H13        -2.0136   -7.1191   -2.4196 H         1 <0>         0.1035
     30 H14        -1.0078   -5.9545   -3.3142 H         1 <0>         0.0898
     31 H15         2.1372   -7.3476   -2.2075 H         1 <0>         0.4346
     32 H16         1.3634   -7.7526   -3.6047 H         1 <0>         0.4371
     33 H17         1.4256   -6.1778   -3.1239 H         1 <0>         0.4380
@<TRIPOS>BOND
     1    1    2 1
     2    1   18 1
     3    1   19 1
     4    1   20 1
     5    2    7 ar
     6    2    3 ar
     7    3    4 ar
     8    3   21 1
     9    4    5 ar
    10    4   22 1
    11    5    6 ar
    12    5    9 1
    13    6    7 ar
    14    6   23 1
    15    7    8 1
    16    8   24 1
    17    8   25 1
    18    8   26 1
    19    9   13 1
    20    9   10 2
    21   10   11 1
    22   11   12 2
    23   11   14 1
    24   12   13 1
    25   12   27 1
    26   14   15 1
    27   14   16 1
    28   14   17 1
    29   16   28 1
    30   16   29 1
    31   16   30 1
    32   17   31 1
    33   17   32 1
    34   17   33 1
@<TRIPOS>MOLECULE
ZINC70842443
   33    34     0     0     0
SMALL
USER_CHARGES

@<TRIPOS>ATOM
      1 C1         -0.0184    1.5028    0.0103 C.3       1 <0>        -0.1293
      2 C2          0.0021   -0.0041    0.0020 C.ar      1 <0>        -0.0442
      3 C3          0.0057   -0.6863   -1.2018 C.ar      1 <0>        -0.1195
      4 C4          0.0249   -2.0656   -1.2163 C.ar      1 <0>        -0.0596
      5 C5          0.0405   -2.7729   -0.0133 C.ar      1 <0>        -0.0515
      6 C6          0.0368   -2.0789    1.1972 C.ar      1 <0>        -0.0789
      7 C7          0.0229   -0.6991    1.1979 C.ar      1 <0>        -0.0828
      8 C8          0.0250    0.0522    2.5042 C.3       1 <0>        -0.1231
      9 C9          0.0606   -4.2514   -0.0214 C.2       1 <0>         0.2052
     10 N1          0.0722   -5.0870   -1.0504 N.2       1 <0>        -0.5049
     11 C10         0.0898   -6.3870   -0.8724 C.2       1 <0>         0.0427
     12 C11         0.0964   -6.8982    0.3874 C.2       1 <0>        -0.2660
     13 S1          0.0837   -5.3936    1.3541 S.3       1 <0>         0.0966
     14 C12         0.1021   -7.3116   -2.0623 C.3       1 <0>         0.1094
     15 H1          1.0319   -7.1794   -2.6156 H         1 <0>         0.1574
     16 C13        -1.0838   -6.9869   -2.9729 C.3       1 <0>        -0.1745
     17 N2         -0.0004   -8.7030   -1.6023 N.4       1 <0>        -0.6348
     18 H2          1.0042    1.8801    0.0026 H         1 <0>         0.0817
     19 H3         -0.5455    1.8639   -0.8728 H         1 <0>         0.0751
     20 H4         -0.5286    1.8543    0.9071 H         1 <0>         0.0770
     21 H5         -0.0068   -0.1378   -2.1321 H         1 <0>         0.1373
     22 H6          0.0273   -2.5969   -2.1566 H         1 <0>         0.1362
     23 H7          0.0489   -2.6204    2.1315 H         1 <0>         0.1280
     24 H8         -1.0020    0.2194    2.8289 H         1 <0>         0.0783
     25 H9          0.5540   -0.5310    3.2579 H         1 <0>         0.0711
     26 H10         0.5246    1.0118    2.3707 H         1 <0>         0.0772
     27 H11         0.1097   -7.9276    0.7138 H         1 <0>         0.1972
     28 H12        -1.0078   -5.9545   -3.3142 H         1 <0>         0.1149
     29 H13        -1.0749   -7.6557   -3.8335 H         1 <0>         0.0879
     30 H14        -2.0136   -7.1191   -2.4196 H         1 <0>         0.0804
     31 H15        -0.8611   -8.8254   -1.0902 H         1 <0>         0.4350
     32 H16         0.0079   -9.3221   -2.3990 H         1 <0>         0.4437
     33 H17         0.7817   -8.9172   -1.0018 H         1 <0>         0.4367
@<TRIPOS>BOND
     1    1    2 1
     2    1   18 1
     3    1   19 1
     4    1   20 1
     5    2    7 ar
     6    2    3 ar
     7    3    4 ar
     8    3   21 1
     9    4    5 ar
    10    4   22 1
    11    5    6 ar
    12    5    9 1
    13    6    7 ar
    14    6   23 1
    15    7    8 1
    16    8   24 1
    17    8   25 1
    18    8   26 1
    19    9   13 1
    20    9   10 2
    21   10   11 1
    22   11   12 2
    23   11   14 1
    24   12   13 1
    25   12   27 1
    26   14   15 1
    27   14   16 1
    28   14   17 1
    29   16   28 1
    30   16   29 1
    31   16   30 1
    32   17   31 1
    33   17   32 1
    34   17   33 1
@<TRIPOS>MOLECULE
ZINC41009995
   36    37     0     0     0
SMALL
USER_CHARGES

@<TRIPOS>ATOM
      1 C1         -0.0187    1.5258    0.0104 C.3       1 <0>        -0.1900
      2 C2          0.0021   -0.0041    0.0020 C.3       1 <0>        -0.0095
      3 N1         -1.3761   -0.5125    0.0124 N.4       1 <0>        -0.5088
      4 C3         -1.3562   -1.9814    0.0044 C.3       1 <0>         0.0781
      5 C4         -2.7700   -2.5030    0.0151 C.2       1 <0>        -0.0081
      6 C5         -3.3827   -2.8334   -1.1528 C.2       1 <0>        -0.1861
      7 S1         -4.9783   -3.3693   -0.5480 S.3       1 <0>         0.0883
      8 C6         -4.6557   -3.0954    1.1892 C.2       1 <0>         0.1914
      9 N2         -3.4098   -2.6441    1.1520 N.2       1 <0>        -0.5118
     10 C7         -5.5389   -3.3177    2.3541 C.ar      1 <0>        -0.0476
     11 C8         -5.0859   -3.0290    3.6423 C.ar      1 <0>        -0.0638
     12 C9         -5.9148   -3.2387    4.7248 C.ar      1 <0>        -0.1189
     13 C10        -7.1928   -3.7341    4.5357 C.ar      1 <0>        -0.0469
     14 C11        -7.6478   -4.0227    3.2616 C.ar      1 <0>        -0.0817
     15 C12        -6.8308   -3.8116    2.1698 C.ar      1 <0>        -0.0802
     16 C13        -9.0408   -4.5629    3.0650 C.3       1 <0>        -0.1247
     17 C14        -8.0929   -3.9607    5.7229 C.3       1 <0>        -0.1303
     18 H1          1.0039    1.9031    0.0027 H         1 <0>         0.1081
     19 H2         -0.5459    1.8868   -0.8726 H         1 <0>         0.0804
     20 H3         -0.5289    1.8773    0.9072 H         1 <0>         0.0806
     21 H4          0.5123   -0.3556   -0.8948 H         1 <0>         0.1324
     22 H5          0.5293   -0.3651    0.8851 H         1 <0>         0.1324
     23 H6         -1.8484   -0.1871    0.8426 H         1 <0>         0.4309
     24 H7         -0.8460   -2.3329   -0.8924 H         1 <0>         0.1453
     25 H8         -0.8290   -2.3425    0.8874 H         1 <0>         0.1446
     26 H9         -3.0096   -2.7853   -2.1651 H         1 <0>         0.2095
     27 H10        -4.0884   -2.6426    3.7912 H         1 <0>         0.1340
     28 H11        -5.5653   -3.0160    5.7221 H         1 <0>         0.1361
     29 H12        -7.1888   -4.0328    1.1751 H         1 <0>         0.1282
     30 H13        -9.7359   -3.7344    2.9287 H         1 <0>         0.0785
     31 H14        -9.0612   -5.2031    2.1831 H         1 <0>         0.0709
     32 H15        -9.3330   -5.1419    3.9411 H         1 <0>         0.0788
     33 H16        -8.6685   -3.0564    5.9203 H         1 <0>         0.0814
     34 H17        -8.7734   -4.7854    5.5108 H         1 <0>         0.0787
     35 H18        -7.4879   -4.2042    6.5963 H         1 <0>         0.0740
     36 H19        -1.8641   -0.1783   -0.8050 H         1 <0>         0.4258
@<TRIPOS>BOND
     1    1    2 1
     2    1   18 1
     3    1   19 1
     4    1   20 1
     5    2    3 1
     6    2   21 1
     7    2   22 1
     8    3    4 1
     9    3   23 1
    10    3   36 1
    11    4    5 1
    12    4   24 1
    13    4   25 1
    14    5    9 1
    15    5    6 2
    16    6    7 1
    17    6   26 1
    18    7    8 1
    19    8    9 2
    20    8   10 1
    21   10   15 ar
    22   10   11 ar
    23   11   12 ar
    24   11   27 1
    25   12   13 ar
    26   12   28 1
    27   13   14 ar
    28   13   17 1
    29   14   15 ar
    30   14   16 1
    31   15   29 1
    32   16   30 1
    33   16   31 1
    34   16   32 1
    35   17   33 1
    36   17   34 1
    37   17   35 1
@<TRIPOS>MOLECULE
ZINC00041653
   28    30     0     0     0
SMALL
USER_CHARGES
4-(4-chlorophenyl)-2-phenyl-thiazole
@<TRIPOS>ATOM
      1 C1          3.9575    5.6585   -0.0070 C.ar      1 <0>        -0.0971
      2 C2          2.5745    5.6942    0.0063 C.ar      1 <0>        -0.1178
      3 C3          1.8510    4.5194    0.0072 C.ar      1 <0>        -0.0903
      4 C4          2.5173    3.2933   -0.0052 C.ar      1 <0>        -0.0224
      5 C5          3.9125    3.2642   -0.0132 C.ar      1 <0>        -0.0686
      6 C6          4.6241    4.4462   -0.0193 C.ar      1 <0>        -0.1204
      7 C7          1.7483    2.0303   -0.0037 C.2       1 <0>         0.1658
      8 N1          2.1879    0.7821   -0.0146 N.2       1 <0>        -0.4918
      9 C8          1.3525   -0.2394   -0.0121 C.2       1 <0>         0.0994
     10 C9          0.0021   -0.0041    0.0020 C.2       1 <0>        -0.1930
     11 S1         -0.0222    1.7840    0.0119 S.3       1 <0>         0.0278
     12 C10         1.8700   -1.6297   -0.0250 C.ar      1 <0>        -0.0219
     13 C11         0.9841   -2.7056   -0.0171 C.ar      1 <0>        -0.0927
     14 C12         1.4704   -3.9969   -0.0340 C.ar      1 <0>        -0.1094
     15 C13         2.8358   -4.2246   -0.0487 C.ar      1 <0>        -0.0293
     16 C14         3.7200   -3.1594   -0.0514 C.ar      1 <0>        -0.1115
     17 C15         3.2437   -1.8643   -0.0394 C.ar      1 <0>        -0.0735
     18 Cl1         3.4414   -5.8515   -0.0633 Cl        1 <0>        -0.0665
     19 H1          4.5191    6.5809   -0.0080 H         1 <0>         0.1299
     20 H2          2.0600    6.6438    0.0163 H         1 <0>         0.1326
     21 H3          0.7715    4.5486    0.0172 H         1 <0>         0.1273
     22 H4          4.4340    2.3185   -0.0183 H         1 <0>         0.1357
     23 H5          5.7038    4.4250   -0.0296 H         1 <0>         0.1324
     24 H6         -0.8198   -0.7047    0.0056 H         1 <0>         0.2028
     25 H7         -0.0812   -2.5289   -0.0014 H         1 <0>         0.1345
     26 H8          0.7847   -4.8312   -0.0316 H         1 <0>         0.1384
     27 H9          4.7844   -3.3422   -0.0626 H         1 <0>         0.1374
     28 H10         3.9343   -1.0340   -0.0408 H         1 <0>         0.1421
@<TRIPOS>BOND
     1    1    6 ar
     2    1    2 ar
     3    1   19 1
     4    2    3 ar
     5    2   20 1
     6    3    4 ar
     7    3   21 1
     8    4    5 ar
     9    4    7 1
    10    5    6 ar
    11    5   22 1
    12    6   23 1
    13    7   11 1
    14    7    8 2
    15    8    9 1
    16    9   10 2
    17    9   12 1
    18   10   11 1
    19   10   24 1
    20   12   17 ar
    21   12   13 ar
    22   13   14 ar
    23   13   25 1
    24   14   15 ar
    25   14   26 1
    26   15   16 ar
    27   15   18 1
    28   16   17 ar
    29   16   27 1
    30   17   28 1
@<TRIPOS>MOLECULE
ZINC70840793
   30    31     0     0     0
SMALL
USER_CHARGES

@<TRIPOS>ATOM
      1 C1         -0.0187    1.5258    0.0104 C.3       1 <0>        -0.1801
      2 C2          0.0021   -0.0041    0.0020 C.3       1 <0>         0.1154
      3 H1          0.5293   -0.3651    0.8851 H         1 <0>         0.1509
      4 C3          0.7074   -0.4901   -1.2379 C.2       1 <0>         0.0017
      5 C4          2.0618   -0.6068   -1.2491 C.2       1 <0>        -0.1763
      6 S1          2.3277   -1.2034   -2.9140 S.3       1 <0>         0.1061
      7 C5          0.6107   -1.2321   -3.4118 C.2       1 <0>         0.1805
      8 N1          0.0148   -0.8065   -2.3068 N.2       1 <0>        -0.5328
      9 C6          0.0153   -1.6289   -4.7058 C.ar      1 <0>        -0.0366
     10 C7         -1.3671   -1.5700   -4.8882 C.ar      1 <0>        -0.0537
     11 C8         -1.9168   -1.9410   -6.0976 C.ar      1 <0>        -0.1112
     12 C9         -1.1000   -2.3718   -7.1295 C.ar      1 <0>        -0.0065
     13 C10         0.2723   -2.4328   -6.9542 C.ar      1 <0>        -0.1046
     14 C11         0.8339   -2.0584   -5.7512 C.ar      1 <0>        -0.0707
     15 Cl1        -1.7991   -2.8377   -8.6487 Cl        1 <0>        -0.0426
     16 N2         -1.3761   -0.5125    0.0124 N.4       1 <0>        -0.5007
     17 C12        -2.0260   -0.1396    1.2760 C.3       1 <0>        -0.0522
     18 H2          1.0039    1.9031    0.0027 H         1 <0>         0.1065
     19 H3         -0.5459    1.8868   -0.8726 H         1 <0>         0.0841
     20 H4         -0.5289    1.8773    0.9072 H         1 <0>         0.0901
     21 H5          2.7786   -0.3970   -0.4690 H         1 <0>         0.2107
     22 H6         -2.0052   -1.2349   -4.0839 H         1 <0>         0.1411
     23 H7         -2.9864   -1.8958   -6.2400 H         1 <0>         0.1472
     24 H8          0.9044   -2.7702   -7.7623 H         1 <0>         0.1497
     25 H9          1.9047   -2.1018   -5.6172 H         1 <0>         0.1391
     26 H10        -1.8879   -0.1129   -0.7598 H         1 <0>         0.4345
     27 H11        -3.0486   -0.5169    1.2837 H         1 <0>         0.1287
     28 H12        -1.4732   -0.5714    2.1102 H         1 <0>         0.1244
     29 H13        -2.0386    0.9461    1.3715 H         1 <0>         0.1257
     30 H14        -1.3644   -1.5176   -0.0760 H         1 <0>         0.4316
@<TRIPOS>BOND
     1    1    2 1
     2    1   18 1
     3    1   19 1
     4    1   20 1
     5    2    3 1
     6    2    4 1
     7    2   16 1
     8    4    8 1
     9    4    5 2
    10    5    6 1
    11    5   21 1
    12    6    7 1
    13    7    8 2
    14    7    9 1
    15    9   14 ar
    16    9   10 ar
    17   10   11 ar
    18   10   22 1
    19   11   12 ar
    20   11   23 1
    21   12   13 ar
    22   12   15 1
    23   13   14 ar
    24   13   24 1
    25   14   25 1
    26   16   17 1
    27   16   26 1
    28   16   30 1
    29   17   27 1
    30   17   28 1
    31   17   29 1
@<TRIPOS>MOLECULE
ZINC70840791
   30    31     0     0     0
SMALL
USER_CHARGES

@<TRIPOS>ATOM
      1 C1         -0.0187    1.5258    0.0104 C.3       1 <0>        -0.1802
      2 C2          0.0021   -0.0041    0.0020 C.3       1 <0>         0.1154
      3 H1          0.5293   -0.3651    0.8851 H         1 <0>         0.1510
      4 C3         -1.4117   -0.5257    0.0127 C.2       1 <0>         0.0017
      5 C4         -2.0766   -0.6666    1.1901 C.2       1 <0>        -0.1762
      6 S1         -3.6460   -1.2976    0.6093 S.3       1 <0>         0.1062
      7 C5         -3.2463   -1.3048   -1.1334 C.2       1 <0>         0.1803
      8 N1         -2.0051   -0.8395   -1.1150 N.2       1 <0>        -0.5328
      9 C6         -4.0780   -1.7142   -2.2853 C.ar      1 <0>        -0.0365
     10 C7         -3.5631   -1.6459   -3.5806 C.ar      1 <0>        -0.0537
     11 C8         -4.3435   -2.0297   -4.6512 C.ar      1 <0>        -0.1112
     12 C9         -5.6358   -2.4815   -4.4427 C.ar      1 <0>        -0.0065
     13 C10        -6.1523   -2.5511   -3.1598 C.ar      1 <0>        -0.1046
     14 C11        -5.3791   -2.1759   -2.0809 C.ar      1 <0>        -0.0707
     15 Cl1        -6.6123   -2.9622   -5.7951 Cl        1 <0>        -0.0426
     16 N2          0.6897   -0.4778   -1.2066 N.4       1 <0>        -0.5006
     17 C12         2.1002   -0.0703   -1.1590 C.3       1 <0>        -0.0523
     18 H2          1.0039    1.9031    0.0027 H         1 <0>         0.0901
     19 H3         -0.5459    1.8868   -0.8726 H         1 <0>         0.0841
     20 H4         -0.5289    1.8773    0.9072 H         1 <0>         0.1065
     21 H5         -1.7479   -0.4561    2.1971 H         1 <0>         0.2106
     22 H6         -2.5556   -1.2930   -3.7444 H         1 <0>         0.1410
     23 H7         -3.9461   -1.9773   -5.6541 H         1 <0>         0.1472
     24 H8         -7.1611   -2.9036   -3.0033 H         1 <0>         0.1497
     25 H9         -5.7813   -2.2351   -1.0803 H         1 <0>         0.1391
     26 H10         0.6317   -1.4840   -1.2540 H         1 <0>         0.4316
     27 H11         2.6104   -0.4218   -2.0558 H         1 <0>         0.1287
     28 H12         2.1628    1.0167   -1.1079 H         1 <0>         0.1257
     29 H13         2.5740   -0.5034   -0.2781 H         1 <0>         0.1244
     30 H14         0.2511   -0.0769   -2.0221 H         1 <0>         0.4345
@<TRIPOS>BOND
     1    1    2 1
     2    1   18 1
     3    1   19 1
     4    1   20 1
     5    2    3 1
     6    2    4 1
     7    2   16 1
     8    4    8 1
     9    4    5 2
    10    5    6 1
    11    5   21 1
    12    6    7 1
    13    7    8 2
    14    7    9 1
    15    9   14 ar
    16    9   10 ar
    17   10   11 ar
    18   10   22 1
    19   11   12 ar
    20   11   23 1
    21   12   13 ar
    22   12   15 1
    23   13   14 ar
    24   13   24 1
    25   14   25 1
    26   16   17 1
    27   16   26 1
    28   16   30 1
    29   17   27 1
    30   17   28 1
    31   17   29 1
@<TRIPOS>MOLECULE
ZINC70842840
   25    26     0     0     0
SMALL
USER_CHARGES

@<TRIPOS>ATOM
      1 C1         -0.0187    1.5258    0.0104 C.3       1 <0>        -0.1757
      2 C2          0.0021   -0.0041    0.0020 C.3       1 <0>         0.1759
      3 H1          0.5123   -0.3556   -0.8948 H         1 <0>         0.0739
      4 C3          0.7309   -0.5033    1.2229 C.2       1 <0>         0.0499
      5 C4          0.1264   -1.3836    2.0644 C.2       1 <0>        -0.1586
      6 S1          1.4145   -1.6119    3.2840 S.3       1 <0>         0.0169
      7 C5          2.6140   -0.5131    2.5418 C.2       1 <0>         0.1489
      8 N1          1.9522   -0.0933    1.4727 N.2       1 <0>        -0.4842
      9 C6          3.9787   -0.1691    2.9957 C.ar      1 <0>        -0.0007
     10 C7          4.7560    0.7279    2.2616 C.ar      1 <0>        -0.0676
     11 C8          6.0285    1.0450    2.6898 C.ar      1 <0>        -0.1050
     12 C9          6.5352    0.4761    3.8446 C.ar      1 <0>        -0.0914
     13 C10         5.7697   -0.4146    4.5778 C.ar      1 <0>        -0.0337
     14 C11         4.4923   -0.7356    4.1626 C.ar      1 <0>        -0.0858
     15 Cl1         6.4143   -1.1239    6.0253 Cl        1 <0>        -0.0575
     16 O1         -1.3386   -0.4987    0.0122 O.3       1 <0>        -0.5665
     17 H2          1.0039    1.9031    0.0027 H         1 <0>         0.0758
     18 H3         -0.5459    1.8868   -0.8726 H         1 <0>         0.0633
     19 H4         -0.5289    1.8773    0.9072 H         1 <0>         0.0618
     20 H5         -0.8589   -1.8227    2.0115 H         1 <0>         0.2060
     21 H6          4.3622    1.1728    1.3597 H         1 <0>         0.1428
     22 H7          6.6307    1.7389    2.1220 H         1 <0>         0.1429
     23 H8          7.5321    0.7274    4.1753 H         1 <0>         0.1410
     24 H9          3.8940   -1.4271    4.7374 H         1 <0>         0.1383
     25 H10        -1.8677   -0.2163   -0.7464 H         1 <0>         0.3894
@<TRIPOS>BOND
     1    1    2 1
     2    1   17 1
     3    1   18 1
     4    1   19 1
     5    2    3 1
     6    2    4 1
     7    2   16 1
     8    4    8 1
     9    4    5 2
    10    5    6 1
    11    5   20 1
    12    6    7 1
    13    7    8 2
    14    7    9 1
    15    9   14 ar
    16    9   10 ar
    17   10   11 ar
    18   10   21 1
    19   11   12 ar
    20   11   22 1
    21   12   13 ar
    22   12   23 1
    23   13   14 ar
    24   13   15 1
    25   14   24 1
    26   16   25 1
@<TRIPOS>MOLECULE
ZINC37425015
   23    24     0     0     0
SMALL
USER_CHARGES

@<TRIPOS>ATOM
      1 C1         -0.0167    1.3767    0.0096 C.ar      1 <0>        -0.0876
      2 C2          1.1838    2.0880    0.0020 C.ar      1 <0>         0.0347
      3 C3          2.3968    1.3986   -0.0133 C.ar      1 <0>        -0.0585
      4 C4          2.4030    0.0177   -0.0208 C.ar      1 <0>        -0.0223
      5 C5          1.2087   -0.6826   -0.0136 C.ar      1 <0>        -0.0958
      6 C6          0.0021   -0.0041    0.0020 C.ar      1 <0>        -0.0231
      7 Cl1        -1.4904   -0.8907    0.0115 Cl        1 <0>        -0.0560
      8 Cl2         3.9111   -0.8418   -0.0398 Cl        1 <0>        -0.0504
      9 C7          1.1704    3.5666    0.0095 C.2       1 <0>         0.1263
     10 N1          2.1871    4.4172   -0.0011 N.2       1 <0>        -0.4304
     11 C8          1.9902    5.7146    0.0078 C.2       1 <0>         0.1129
     12 C9          0.7233    6.2074    0.0284 C.2       1 <0>        -0.2046
     13 S1         -0.2215    4.6888    0.0276 S.3       1 <0>        -0.0316
     14 C10         3.1665    6.6566   -0.0042 C.3       1 <0>        -0.1303
     15 C11         4.0845    6.3285    1.1449 C.2       1 <0>         0.4999
     16 O1          3.8092    5.4145    1.9034 O.co2     1 <0>        -0.6782
     17 O2          5.1026    6.9771    1.3162 O.co2     1 <0>        -0.7043
     18 H1         -0.9585    1.9050    0.0259 H         1 <0>         0.1436
     19 H2          3.3290    1.9439   -0.0196 H         1 <0>         0.1583
     20 H3          1.2185   -1.7626   -0.0199 H         1 <0>         0.1470
     21 H4          0.3819    7.2320    0.0385 H         1 <0>         0.1958
     22 H5          3.7081    6.5494   -0.9440 H         1 <0>         0.0784
     23 H6          2.8115    7.6823    0.0957 H         1 <0>         0.0763
@<TRIPOS>BOND
     1    1    6 ar
     2    1    2 ar
     3    1   18 1
     4    2    3 ar
     5    2    9 1
     6    3    4 ar
     7    3   19 1
     8    4    5 ar
     9    4    8 1
    10    5    6 ar
    11    5   20 1
    12    6    7 1
    13    9   13 1
    14    9   10 2
    15   10   11 1
    16   11   12 2
    17   11   14 1
    18   12   13 1
    19   12   21 1
    20   14   15 1
    21   14   22 1
    22   14   23 1
    23   15   16 2
    24   15   17 1
@<TRIPOS>MOLECULE
ZINC70842846
   25    26     0     0     0
SMALL
USER_CHARGES

@<TRIPOS>ATOM
      1 C1         -0.0187    1.5258    0.0104 C.3       1 <0>        -0.1794
      2 C2          0.0021   -0.0041    0.0020 C.3       1 <0>         0.1739
      3 H1          0.5123   -0.3556   -0.8948 H         1 <0>         0.0715
      4 C3         -1.4117   -0.5257    0.0127 C.2       1 <0>         0.0636
      5 C4         -1.8247   -1.3934   -0.9490 C.2       1 <0>        -0.1859
      6 S1         -3.5210   -1.6583   -0.4480 S.3       1 <0>         0.0259
      7 C5         -3.4948   -0.5873    0.9835 C.2       1 <0>         0.1493
      8 N1         -2.2448   -0.1474    0.9534 N.2       1 <0>        -0.4711
      9 C6         -4.5752   -0.2794    1.9450 C.ar      1 <0>        -0.0023
     10 C7         -4.3419    0.6005    3.0031 C.ar      1 <0>        -0.0657
     11 C8         -5.3535    0.8840    3.8970 C.ar      1 <0>        -0.1050
     12 C9         -6.5980    0.2985    3.7470 C.ar      1 <0>        -0.0908
     13 C10        -6.8366   -0.5752    2.6999 C.ar      1 <0>        -0.0342
     14 C11        -5.8337   -0.8626    1.7950 C.ar      1 <0>        -0.0858
     15 Cl1        -8.4012   -1.3055    2.5201 Cl        1 <0>        -0.0578
     16 O1          0.6932   -0.4774    1.1597 O.3       1 <0>        -0.5573
     17 H2          1.0039    1.9031    0.0027 H         1 <0>         0.0633
     18 H3         -0.5459    1.8868   -0.8726 H         1 <0>         0.0639
     19 H4         -0.5289    1.8773    0.9072 H         1 <0>         0.0737
     20 H5         -1.2796   -1.8075   -1.7844 H         1 <0>         0.2030
     21 H6         -3.3709    1.0582    3.1219 H         1 <0>         0.1434
     22 H7         -5.1736    1.5645    4.7162 H         1 <0>         0.1432
     23 H8         -7.3865    0.5236    4.4499 H         1 <0>         0.1411
     24 H9         -6.0217   -1.5408    0.9758 H         1 <0>         0.1379
     25 H10         1.6114   -0.1800    1.2187 H         1 <0>         0.3815
@<TRIPOS>BOND
     1    1    2 1
     2    1   17 1
     3    1   18 1
     4    1   19 1
     5    2    3 1
     6    2    4 1
     7    2   16 1
     8    4    8 1
     9    4    5 2
    10    5    6 1
    11    5   20 1
    12    6    7 1
    13    7    8 2
    14    7    9 1
    15    9   14 ar
    16    9   10 ar
    17   10   11 ar
    18   10   21 1
    19   11   12 ar
    20   11   22 1
    21   12   13 ar
    22   12   23 1
    23   13   14 ar
    24   13   15 1
    25   14   24 1
    26   16   25 1
@<TRIPOS>MOLECULE
ZINC62938236
   29    31     0     0     0
SMALL
USER_CHARGES

@<TRIPOS>ATOM
      1 C1         -0.0169    1.3939    0.0097 C.ar      1 <0>        -0.0697
      2 C2          1.1615    2.0950    0.0022 C.ar      1 <0>        -0.0875
      3 C3          2.3796    1.4136   -0.0131 C.ar      1 <0>         0.0042
      4 C4          2.3999    0.0180   -0.0212 C.ar      1 <0>        -0.1063
      5 C5          1.2229   -0.6854   -0.0138 C.ar      1 <0>        -0.0673
      6 C6          0.0021   -0.0041    0.0020 C.ar      1 <0>        -0.0225
      7 C7         -1.2278   -0.7375    0.0103 C.1       1 <0>         0.2493
      8 N1         -2.2035   -1.3193    0.0169 N.1       1 <0>        -0.4098
      9 C8          3.6521    2.1724   -0.0211 C.2       1 <0>         0.0920
     10 C9          4.8535    1.5102   -0.0413 C.2       1 <0>        -0.1811
     11 S1          5.9917    2.8894   -0.0421 S.3       1 <0>         0.0448
     12 C10         4.7657    4.1899   -0.0158 C.2       1 <0>         0.1548
     13 N2          3.6412    3.4929   -0.0144 N.2       1 <0>        -0.4825
     14 C11         4.9574    5.6559   -0.0046 C.ar      1 <0>        -0.0156
     15 C12         3.8511    6.5066    0.0226 C.ar      1 <0>        -0.0356
     16 C13         4.0348    7.8734    0.0334 C.ar      1 <0>        -0.1396
     17 C14         5.3151    8.4033    0.0168 C.ar      1 <0>         0.1323
     18 C15         6.4181    7.5631   -0.0106 C.ar      1 <0>        -0.0745
     19 C16         6.2450    6.1936   -0.0154 C.ar      1 <0>        -0.0559
     20 Cl1         8.0188    8.2346   -0.0323 Cl        1 <0>        -0.0342
     21 F1          5.4894    9.7430    0.0271 F         1 <0>        -0.1179
     22 H1         -0.9592    1.9214    0.0260 H         1 <0>         0.1372
     23 H2          1.1471    3.1749    0.0078 H         1 <0>         0.1440
     24 H3          3.3430   -0.5081   -0.0338 H         1 <0>         0.1364
     25 H4          1.2388   -1.7653   -0.0204 H         1 <0>         0.1382
     26 H5          5.0559    0.4494   -0.0529 H         1 <0>         0.2064
     27 H6          2.8527    6.0951    0.0347 H         1 <0>         0.1547
     28 H7          3.1792    8.5320    0.0544 H         1 <0>         0.1569
     29 H8          7.1043    5.5397   -0.0323 H         1 <0>         0.1485
@<TRIPOS>BOND
     1    1    6 ar
     2    1    2 ar
     3    1   22 1
     4    2    3 ar
     5    2   23 1
     6    3    4 ar
     7    3    9 1
     8    4    5 ar
     9    4   24 1
    10    5    6 ar
    11    5   25 1
    12    6    7 1
    13    7    8 3
    14    9   13 1
    15    9   10 2
    16   10   11 1
    17   10   26 1
    18   11   12 1
    19   12   13 2
    20   12   14 1
    21   14   19 ar
    22   14   15 ar
    23   15   16 ar
    24   15   27 1
    25   16   17 ar
    26   16   28 1
    27   17   18 ar
    28   17   21 1
    29   18   19 ar
    30   18   20 1
    31   19   29 1
@<TRIPOS>MOLECULE
ZINC37712815
   32    33     0     0     0
SMALL
USER_CHARGES

@<TRIPOS>ATOM
      1 C1         -0.0169    1.3914    0.0097 C.ar      1 <0>        -0.0590
      2 C2          1.1695    2.0947    0.0021 C.ar      1 <0>        -0.1504
      3 C3          2.3789    1.4182   -0.0135 C.ar      1 <0>         0.1279
      4 C4          2.4033    0.0326   -0.0212 C.ar      1 <0>        -0.1552
      5 C5          1.2228   -0.6804   -0.0137 C.ar      1 <0>        -0.0374
      6 C6          0.0021   -0.0041    0.0020 C.ar      1 <0>        -0.0390
      7 C7         -1.2666   -0.7632    0.0105 C.2       1 <0>         0.1664
      8 N1         -1.4625   -2.0744    0.0109 N.2       1 <0>        -0.4863
      9 C8         -2.6728   -2.5824    0.0199 C.2       1 <0>         0.0552
     10 C9         -3.7535   -1.7580    0.0291 C.2       1 <0>        -0.2031
     11 S1         -2.9497   -0.1603    0.0311 S.3       1 <0>         0.0397
     12 C10        -2.8638   -4.0772    0.0196 C.3       1 <0>         0.1341
     13 N2         -2.8166   -4.5766   -1.3611 N.3       1 <0>        -0.6752
     14 C11        -2.9997   -6.0336   -1.4005 C.3       1 <0>         0.0289
     15 C12        -2.9445   -6.5155   -2.8516 C.3       1 <0>        -0.0090
     16 N3         -3.1276   -7.9725   -2.8910 N.4       1 <0>        -0.6347
     17 F1          3.5381    2.1119   -0.0217 F         1 <0>        -0.1287
     18 H1         -0.9588    1.9196    0.0260 H         1 <0>         0.1383
     19 H2          1.1559    3.1746    0.0081 H         1 <0>         0.1485
     20 H3          3.3485   -0.4898   -0.0334 H         1 <0>         0.1469
     21 H4          1.2429   -1.7602   -0.0204 H         1 <0>         0.1455
     22 H5         -4.8058   -2.0005    0.0368 H         1 <0>         0.1984
     23 H6         -2.0705   -4.5450    0.6025 H         1 <0>         0.0965
     24 H7         -3.8305   -4.3200    0.4609 H         1 <0>         0.0570
     25 H8         -3.5008   -4.1104   -1.9378 H         1 <0>         0.3510
     26 H9         -2.2073   -6.5150   -0.8274 H         1 <0>         0.0977
     27 H10        -3.9673   -6.2900   -0.9690 H         1 <0>         0.0549
     28 H11        -3.7370   -6.0341   -3.4247 H         1 <0>         0.1326
     29 H12        -1.9770   -6.2591   -3.2831 H         1 <0>         0.1441
     30 H13        -4.0233   -8.2098   -2.4916 H         1 <0>         0.4349
     31 H14        -3.0913   -8.2903   -3.8479 H         1 <0>         0.4420
     32 H15        -2.3941   -8.4181   -2.3605 H         1 <0>         0.4373
@<TRIPOS>BOND
     1    1    6 ar
     2    1    2 ar
     3    1   18 1
     4    2    3 ar
     5    2   19 1
     6    3    4 ar
     7    3   17 1
     8    4    5 ar
     9    4   20 1
    10    5    6 ar
    11    5   21 1
    12    6    7 1
    13    7   11 1
    14    7    8 2
    15    8    9 1
    16    9   10 2
    17    9   12 1
    18   10   11 1
    19   10   22 1
    20   12   13 1
    21   12   23 1
    22   12   24 1
    23   13   14 1
    24   13   25 1
    25   14   15 1
    26   14   26 1
    27   14   27 1
    28   15   16 1
    29   15   28 1
    30   15   29 1
    31   16   30 1
    32   16   31 1
    33   16   32 1
@<TRIPOS>MOLECULE
ZINC37712815
   33    34     0     0     0
SMALL
USER_CHARGES

@<TRIPOS>ATOM
      1 C1         -0.0169    1.3914    0.0097 C.ar      1 <0>        -0.0499
      2 C2          1.1695    2.0947    0.0021 C.ar      1 <0>        -0.1488
      3 C3          2.3789    1.4182   -0.0135 C.ar      1 <0>         0.1473
      4 C4          2.4033    0.0326   -0.0212 C.ar      1 <0>        -0.1570
      5 C5          1.2228   -0.6804   -0.0137 C.ar      1 <0>        -0.0314
      6 C6          0.0021   -0.0041    0.0020 C.ar      1 <0>        -0.0652
      7 C7         -1.2666   -0.7632    0.0105 C.2       1 <0>         0.1941
      8 N1         -1.4625   -2.0744    0.0109 N.2       1 <0>        -0.5169
      9 C8         -2.6728   -2.5824    0.0199 C.2       1 <0>        -0.0186
     10 C9         -3.7535   -1.7580    0.0291 C.2       1 <0>        -0.1866
     11 S1         -2.9497   -0.1603    0.0311 S.3       1 <0>         0.1216
     12 C10        -2.8638   -4.0772    0.0196 C.3       1 <0>         0.0812
     13 N2         -2.8166   -4.5766   -1.3611 N.4       1 <0>        -0.5045
     14 C11        -3.0028   -6.0337   -1.3614 C.3       1 <0>        -0.0381
     15 C12        -2.9536   -6.5538   -2.7995 C.3       1 <0>        -0.0323
     16 N3         -3.1399   -8.0110   -2.7998 N.4       1 <0>        -0.6306
     17 F1          3.5381    2.1119   -0.0217 F         1 <0>        -0.1198
     18 H1         -0.9588    1.9196    0.0260 H         1 <0>         0.1402
     19 H2          1.1559    3.1746    0.0081 H         1 <0>         0.1549
     20 H3          3.3485   -0.4898   -0.0334 H         1 <0>         0.1516
     21 H4          1.2429   -1.7602   -0.0204 H         1 <0>         0.1432
     22 H5         -4.8058   -2.0005    0.0368 H         1 <0>         0.2107
     23 H6         -2.0705   -4.5450    0.6025 H         1 <0>         0.1513
     24 H7         -3.8305   -4.3200    0.4609 H         1 <0>         0.1518
     25 H8         -3.5510   -4.1435   -1.9007 H         1 <0>         0.4351
     26 H9         -2.2095   -6.5016   -0.7785 H         1 <0>         0.1565
     27 H10        -3.9695   -6.2766   -0.9201 H         1 <0>         0.1565
     28 H11        -3.7470   -6.0860   -3.3824 H         1 <0>         0.1566
     29 H12        -1.9870   -6.3110   -3.2408 H         1 <0>         0.1565
     30 H13        -3.1074   -8.3540   -3.7482 H         1 <0>         0.4585
     31 H14        -2.4055   -8.4441   -2.2602 H         1 <0>         0.4462
     32 H15        -4.0347   -8.2358   -2.3913 H         1 <0>         0.4458
     33 H16        -1.9218   -4.3518   -1.7696 H         1 <0>         0.4400
@<TRIPOS>BOND
     1    1    6 ar
     2    1    2 ar
     3    1   18 1
     4    2    3 ar
     5    2   19 1
     6    3    4 ar
     7    3   17 1
     8    4    5 ar
     9    4   20 1
    10    5    6 ar
    11    5   21 1
    12    6    7 1
    13    7   11 1
    14    7    8 2
    15    8    9 1
    16    9   10 2
    17    9   12 1
    18   10   11 1
    19   10   22 1
    20   12   13 1
    21   12   23 1
    22   12   24 1
    23   13   14 1
    24   13   25 1
    25   13   33 1
    26   14   15 1
    27   14   26 1
    28   14   27 1
    29   15   16 1
    30   15   28 1
    31   15   29 1
    32   16   30 1
    33   16   31 1
    34   16   32 1
@<TRIPOS>MOLECULE
ZINC35163501
   28    29     0     0     0
SMALL
USER_CHARGES

@<TRIPOS>ATOM
      1 C1          0.0180   -1.1779   -0.0044 C.1       1 <0>        -0.1854
      2 C2          0.0021   -0.0041    0.0020 C.1       1 <0>        -0.1937
      3 C3         -0.0179    1.4678    0.0101 C.3       1 <0>         0.1682
      4 N1          1.3603    1.9762   -0.0003 N.3       1 <0>        -0.6825
      5 C4          1.3795    3.4451    0.0074 C.3       1 <0>         0.1300
      6 C5          2.8068    3.9288   -0.0036 C.2       1 <0>         0.0553
      7 C6          3.4057    4.2556   -1.1793 C.2       1 <0>        -0.1721
      8 S1          5.0260    4.7429   -0.5999 S.3       1 <0>         0.0203
      9 C7          4.7295    4.4589    1.1403 C.2       1 <0>         0.1526
     10 N2          3.4717    4.0404    1.1225 N.2       1 <0>        -0.4923
     11 C8          5.6400    4.6458    2.2901 C.ar      1 <0>        -0.0277
     12 C9          5.2036    4.3550    3.5834 C.ar      1 <0>        -0.0411
     13 C10         6.0570    4.5311    4.6524 C.ar      1 <0>        -0.1536
     14 C11         7.3457    4.9965    4.4441 C.ar      1 <0>         0.1198
     15 C12         7.7841    5.2868    3.1619 C.ar      1 <0>        -0.1506
     16 C13         6.9408    5.1083    2.0853 C.ar      1 <0>        -0.0622
     17 F1          8.1774    5.1682    5.4948 F         1 <0>        -0.1324
     18 H1          0.0322   -2.2278   -0.0102 H         1 <0>         0.2188
     19 H2         -0.5451    1.8289   -0.8729 H         1 <0>         0.0977
     20 H3         -0.5281    1.8193    0.9069 H         1 <0>         0.0574
     21 H4          1.8890    1.6036    0.7740 H         1 <0>         0.3506
     22 H5          0.8620    3.8199   -0.8757 H         1 <0>         0.0929
     23 H6          0.8790    3.8103    0.9042 H         1 <0>         0.0526
     24 H7          3.0123    4.2282   -2.1847 H         1 <0>         0.2020
     25 H8          4.1994    3.9929    3.7469 H         1 <0>         0.1459
     26 H9          5.7203    4.3063    5.6537 H         1 <0>         0.1453
     27 H10         8.7893    5.6492    3.0050 H         1 <0>         0.1460
     28 H11         7.2850    5.3302    1.0859 H         1 <0>         0.1381
@<TRIPOS>BOND
     1    1    2 3
     2    1   18 1
     3    2    3 1
     4    3    4 1
     5    3   19 1
     6    3   20 1
     7    4    5 1
     8    4   21 1
     9    5    6 1
    10    5   22 1
    11    5   23 1
    12    6   10 1
    13    6    7 2
    14    7    8 1
    15    7   24 1
    16    8    9 1
    17    9   10 2
    18    9   11 1
    19   11   16 ar
    20   11   12 ar
    21   12   13 ar
    22   12   25 1
    23   13   14 ar
    24   13   26 1
    25   14   15 ar
    26   14   17 1
    27   15   16 ar
    28   15   27 1
    29   16   28 1
@<TRIPOS>MOLECULE
ZINC35163501
   29    30     0     0     0
SMALL
USER_CHARGES

@<TRIPOS>ATOM
      1 C1          0.0180   -1.1779   -0.0044 C.1       1 <0>        -0.0498
      2 C2          0.0021   -0.0041    0.0020 C.1       1 <0>        -0.3052
      3 C3         -0.0179    1.4678    0.0101 C.3       1 <0>         0.1337
      4 N1          1.3603    1.9762   -0.0003 N.4       1 <0>        -0.5090
      5 C4          1.3403    3.4451    0.0078 C.3       1 <0>         0.0779
      6 C5          2.7542    3.9667   -0.0029 C.2       1 <0>        -0.0093
      7 C6          3.3443    4.3097   -1.1784 C.2       1 <0>        -0.1804
      8 S1          4.9510    4.8399   -0.5987 S.3       1 <0>         0.0980
      9 C7          4.6619    4.5477    1.1415 C.2       1 <0>         0.1845
     10 N2          3.4158    4.0957    1.1233 N.2       1 <0>        -0.5079
     11 C8          5.5670    4.7585    2.2914 C.ar      1 <0>        -0.0551
     12 C9          5.1383    4.4557    3.5846 C.ar      1 <0>        -0.0330
     13 C10         5.9865    4.6543    4.6538 C.ar      1 <0>        -0.1555
     14 C11         7.2624    5.1540    4.4458 C.ar      1 <0>         0.1393
     15 C12         7.6930    5.4562    3.1637 C.ar      1 <0>        -0.1500
     16 C13         6.8550    5.2555    2.0869 C.ar      1 <0>        -0.0532
     17 F1          8.0891    5.3475    5.4967 F         1 <0>        -0.1240
     18 H1          0.0322   -2.2278   -0.0102 H         1 <0>         0.2365
     19 H2         -0.5451    1.8289   -0.8729 H         1 <0>         0.1514
     20 H3         -0.5281    1.8193    0.9069 H         1 <0>         0.1513
     21 H4          1.8483    1.6420    0.8171 H         1 <0>         0.4340
     22 H5          0.8132    3.8062   -0.8753 H         1 <0>         0.1494
     23 H6          0.8302    3.7966    0.9046 H         1 <0>         0.1486
     24 H7          2.9519    4.2720   -2.1839 H         1 <0>         0.2115
     25 H8          4.1440    4.0670    3.7478 H         1 <0>         0.1455
     26 H9          5.6558    4.4204    5.6549 H         1 <0>         0.1503
     27 H10         8.6882    5.8453    3.0070 H         1 <0>         0.1520
     28 H11         7.1933    5.4868    1.0876 H         1 <0>         0.1395
     29 H12         1.8325    1.6508   -0.8305 H         1 <0>         0.4291
@<TRIPOS>BOND
     1    1    2 3
     2    1   18 1
     3    2    3 1
     4    3    4 1
     5    3   19 1
     6    3   20 1
     7    4    5 1
     8    4   21 1
     9    4   29 1
    10    5    6 1
    11    5   22 1
    12    5   23 1
    13    6   10 1
    14    6    7 2
    15    7    8 1
    16    7   24 1
    17    8    9 1
    18    9   10 2
    19    9   11 1
    20   11   16 ar
    21   11   12 ar
    22   12   13 ar
    23   12   25 1
    24   13   14 ar
    25   13   26 1
    26   14   15 ar
    27   14   17 1
    28   15   16 ar
    29   15   27 1
    30   16   28 1
@<TRIPOS>MOLECULE
ZINC70840341
   30    31     0     0     0
SMALL
USER_CHARGES

@<TRIPOS>ATOM
      1 C1         -0.0184    1.5028    0.0103 C.3       1 <0>        -0.1275
      2 C2          0.0021   -0.0041    0.0020 C.ar      1 <0>        -0.0782
      3 C3          0.0057   -0.6864   -1.2013 C.ar      1 <0>        -0.0893
      4 C4          0.0249   -2.0657   -1.2162 C.ar      1 <0>        -0.0877
      5 C5          0.0406   -2.7744   -0.0139 C.ar      1 <0>        -0.0239
      6 C6          0.0368   -2.0825    1.1974 C.ar      1 <0>        -0.0928
      7 C7          0.0229   -0.7004    1.1996 C.ar      1 <0>         0.0986
      8 F1          0.0248   -0.0277    2.3712 F         1 <0>        -0.1256
      9 C8          0.0606   -4.2530   -0.0241 C.2       1 <0>         0.1942
     10 N1          0.0719   -5.1013    0.9945 N.2       1 <0>        -0.4991
     11 C9          0.0895   -6.3989    0.8004 C.2       1 <0>         0.0410
     12 C10         0.0966   -6.8946   -0.4656 C.2       1 <0>        -0.2609
     13 S1          0.0683   -5.3783   -1.4136 S.3       1 <0>         0.1129
     14 C11         0.1025   -7.3382    1.9788 C.3       1 <0>         0.1092
     15 H1         -0.8305   -7.2381    2.5335 H         1 <0>         0.1581
     16 C12         1.2792   -6.9927    2.8935 C.3       1 <0>        -0.1752
     17 N2          0.2425   -8.7205    1.5017 N.4       1 <0>        -0.6348
     18 H2          1.0042    1.8801    0.0026 H         1 <0>         0.0860
     19 H3         -0.5455    1.8639   -0.8728 H         1 <0>         0.0821
     20 H4         -0.5286    1.8543    0.9071 H         1 <0>         0.0783
     21 H5         -0.0068   -0.1379   -2.1316 H         1 <0>         0.1494
     22 H6          0.0273   -2.5964   -2.1568 H         1 <0>         0.1363
     23 H7          0.0489   -2.6254    2.1310 H         1 <0>         0.1494
     24 H8          0.1105   -7.9198   -0.8048 H         1 <0>         0.1991
     25 H9          1.2886   -7.6721    3.7458 H         1 <0>         0.0886
     26 H10         2.2122   -7.0928    2.3388 H         1 <0>         0.0808
     27 H11         1.1753   -5.9671    3.2476 H         1 <0>         0.1150
     28 H12         1.1061   -8.8132    0.9882 H         1 <0>         0.4351
     29 H13         0.2512   -9.3494    2.2906 H         1 <0>         0.4442
     30 H14        -0.5335   -8.9484    0.8984 H         1 <0>         0.4368
@<TRIPOS>BOND
     1    1    2 1
     2    1   18 1
     3    1   19 1
     4    1   20 1
     5    2    7 ar
     6    2    3 ar
     7    3    4 ar
     8    3   21 1
     9    4    5 ar
    10    4   22 1
    11    5    6 ar
    12    5    9 1
    13    6    7 ar
    14    6   23 1
    15    7    8 1
    16    9   13 1
    17    9   10 2
    18   10   11 1
    19   11   12 2
    20   11   14 1
    21   12   13 1
    22   12   24 1
    23   14   15 1
    24   14   16 1
    25   14   17 1
    26   16   25 1
    27   16   26 1
    28   16   27 1
    29   17   28 1
    30   17   29 1
    31   17   30 1
@<TRIPOS>MOLECULE
ZINC40420365
   33    34     0     0     0
SMALL
USER_CHARGES

@<TRIPOS>ATOM
      1 C1         -0.0187    1.5258    0.0104 C.3       1 <0>        -0.1566
      2 C2          0.0021   -0.0041    0.0020 C.3       1 <0>        -0.1515
      3 C3          0.7182   -0.4975   -1.2568 C.3       1 <0>        -0.0102
      4 N1          0.7381   -1.9663   -1.2649 N.4       1 <0>        -0.5086
      5 C4          1.4257   -2.4401   -2.4735 C.3       1 <0>         0.0783
      6 C5          1.4462   -3.9469   -2.4818 C.2       1 <0>        -0.0106
      7 C6          0.4880   -4.6372   -3.1555 C.2       1 <0>        -0.1791
      8 S1          0.9999   -6.3189   -2.8260 S.3       1 <0>         0.1035
      9 C7          2.4300   -5.9199   -1.8298 C.2       1 <0>         0.1776
     10 N2          2.3918   -4.5949   -1.8432 N.2       1 <0>        -0.5022
     11 C8          3.3976   -6.8243   -1.1723 C.ar      1 <0>        -0.0107
     12 C9          4.4532   -6.2979   -0.4260 C.ar      1 <0>        -0.0754
     13 C10         5.3533   -7.1459    0.1854 C.ar      1 <0>        -0.0879
     14 C11         5.2124   -8.5164    0.0607 C.ar      1 <0>        -0.1200
     15 C12         4.1672   -9.0465   -0.6784 C.ar      1 <0>         0.1101
     16 C13         3.2558   -8.2070   -1.2907 C.ar      1 <0>        -0.1248
     17 F1          4.0358  -10.3859   -0.7964 F         1 <0>        -0.1260
     18 H1          1.0039    1.9031    0.0027 H         1 <0>         0.0677
     19 H2         -0.5459    1.8868   -0.8726 H         1 <0>         0.0675
     20 H3         -0.5289    1.8773    0.9072 H         1 <0>         0.0777
     21 H4          0.5293   -0.3651    0.8851 H         1 <0>         0.0864
     22 H5         -1.0205   -0.3814    0.0098 H         1 <0>         0.0861
     23 H6          0.1910   -0.1364   -2.1398 H         1 <0>         0.1332
     24 H7          1.7408   -0.1202   -1.2645 H         1 <0>         0.1334
     25 H8          1.2261   -2.3006   -0.4474 H         1 <0>         0.4312
     26 H9          0.8985   -2.0790   -3.3565 H         1 <0>         0.1462
     27 H10         2.4483   -2.0628   -2.4812 H         1 <0>         0.1456
     28 H11        -0.3501   -4.2714   -3.7301 H         1 <0>         0.2117
     29 H12         4.5653   -5.2283   -0.3277 H         1 <0>         0.1422
     30 H13         6.1703   -6.7387    0.7625 H         1 <0>         0.1482
     31 H14         5.9201   -9.1758    0.5411 H         1 <0>         0.1494
     32 H15         2.4386   -8.6203   -1.8631 H         1 <0>         0.1414
     33 H16        -0.2085   -2.3156   -1.2577 H         1 <0>         0.4263
@<TRIPOS>BOND
     1    1    2 1
     2    1   18 1
     3    1   19 1
     4    1   20 1
     5    2    3 1
     6    2   21 1
     7    2   22 1
     8    3    4 1
     9    3   23 1
    10    3   24 1
    11    4    5 1
    12    4   25 1
    13    4   33 1
    14    5    6 1
    15    5   26 1
    16    5   27 1
    17    6   10 1
    18    6    7 2
    19    7    8 1
    20    7   28 1
    21    8    9 1
    22    9   10 2
    23    9   11 1
    24   11   16 ar
    25   11   12 ar
    26   12   13 ar
    27   12   29 1
    28   13   14 ar
    29   13   30 1
    30   14   15 ar
    31   14   31 1
    32   15   16 ar
    33   15   17 1
    34   16   32 1
@<TRIPOS>MOLECULE
ZINC70840337
   30    31     0     0     0
SMALL
USER_CHARGES

@<TRIPOS>ATOM
      1 C1         -0.0184    1.5028    0.0103 C.3       1 <0>        -0.1276
      2 C2          0.0021   -0.0041    0.0020 C.ar      1 <0>        -0.0802
      3 C3          0.0057   -0.6864   -1.2013 C.ar      1 <0>        -0.0877
      4 C4          0.0249   -2.0657   -1.2162 C.ar      1 <0>        -0.0892
      5 C5          0.0406   -2.7744   -0.0139 C.ar      1 <0>        -0.0195
      6 C6          0.0368   -2.0825    1.1974 C.ar      1 <0>        -0.0975
      7 C7          0.0229   -0.7004    1.1996 C.ar      1 <0>         0.0984
      8 F1          0.0248   -0.0277    2.3712 F         1 <0>        -0.1266
      9 C8          0.0606   -4.2530   -0.0241 C.2       1 <0>         0.1799
     10 N1          0.0719   -5.1013    0.9945 N.2       1 <0>        -0.5121
     11 C9          0.0895   -6.3989    0.8004 C.2       1 <0>        -0.0079
     12 C10         0.0966   -6.8946   -0.4656 C.2       1 <0>        -0.1753
     13 S1          0.0683   -5.3783   -1.4136 S.3       1 <0>         0.1058
     14 C11         0.1025   -7.3382    1.9788 C.3       1 <0>         0.1172
     15 H1          0.2064   -8.3639    1.6248 H         1 <0>         0.1537
     16 C12         1.2792   -6.9927    2.8935 C.3       1 <0>        -0.1778
     17 N2         -1.1549   -7.2033    2.7264 N.4       1 <0>        -0.6342
     18 H2          1.0042    1.8801    0.0026 H         1 <0>         0.0859
     19 H3         -0.5455    1.8639   -0.8728 H         1 <0>         0.0821
     20 H4         -0.5286    1.8543    0.9071 H         1 <0>         0.0778
     21 H5         -0.0068   -0.1379   -2.1316 H         1 <0>         0.1492
     22 H6          0.0273   -2.5964   -2.1568 H         1 <0>         0.1366
     23 H7          0.0489   -2.6254    2.1310 H         1 <0>         0.1462
     24 H8          0.1105   -7.9198   -0.8048 H         1 <0>         0.2116
     25 H9          2.2122   -7.0928    2.3388 H         1 <0>         0.1039
     26 H10         1.1753   -5.9671    3.2476 H         1 <0>         0.0898
     27 H11         1.2886   -7.6721    3.7458 H         1 <0>         0.0868
     28 H12        -1.9309   -7.4312    2.1232 H         1 <0>         0.4347
     29 H13        -1.1462   -7.8322    3.5154 H         1 <0>         0.4377
     30 H14        -1.2511   -6.2539    3.0541 H         1 <0>         0.4381
@<TRIPOS>BOND
     1    1    2 1
     2    1   18 1
     3    1   19 1
     4    1   20 1
     5    2    7 ar
     6    2    3 ar
     7    3    4 ar
     8    3   21 1
     9    4    5 ar
    10    4   22 1
    11    5    6 ar
    12    5    9 1
    13    6    7 ar
    14    6   23 1
    15    7    8 1
    16    9   13 1
    17    9   10 2
    18   10   11 1
    19   11   12 2
    20   11   14 1
    21   12   13 1
    22   12   24 1
    23   14   15 1
    24   14   16 1
    25   14   17 1
    26   16   25 1
    27   16   26 1
    28   16   27 1
    29   17   28 1
    30   17   29 1
    31   17   30 1
@<TRIPOS>MOLECULE
ZINC40415667
   34    36     0     0     0
SMALL
USER_CHARGES

@<TRIPOS>ATOM
      1 C1         -0.0184    1.5028    0.0103 C.3       1 <0>        -0.1278
      2 C2          0.0021   -0.0041    0.0020 C.ar      1 <0>        -0.0444
      3 C3          0.0057   -0.6862   -1.2016 C.ar      1 <0>        -0.1183
      4 C4          0.0249   -2.0657   -1.2161 C.ar      1 <0>        -0.0776
      5 C5          0.0405   -2.7729   -0.0132 C.ar      1 <0>        -0.0524
      6 C6          0.0368   -2.0788    1.1974 C.ar      1 <0>        -0.0572
      7 C7          0.0229   -0.6992    1.1980 C.ar      1 <0>        -0.1239
      8 C8          0.0606   -4.2514   -0.0214 C.2       1 <0>         0.1900
      9 N1          0.0718   -5.0983    0.9984 N.2       1 <0>        -0.5117
     10 C9          0.0895   -6.3962    0.8061 C.2       1 <0>        -0.0084
     11 C10         0.0966   -6.8936   -0.4593 C.2       1 <0>        -0.1851
     12 S1          0.0683   -5.3786   -1.4093 S.3       1 <0>         0.0895
     13 C11         0.1024   -7.3339    1.9857 C.3       1 <0>         0.0833
     14 N2          1.4849   -7.5249    2.4443 N.4       1 <0>        -0.4782
     15 C12         1.4975   -8.4389    3.5942 C.3       1 <0>        -0.0840
     16 C13         1.9843   -7.8825    4.9337 C.3       1 <0>        -0.1535
     17 C14         2.8606   -8.8596    4.1474 C.3       1 <0>        -0.1541
     18 H1          1.0042    1.8801    0.0026 H         1 <0>         0.0814
     19 H2         -0.5455    1.8639   -0.8728 H         1 <0>         0.0752
     20 H3         -0.5286    1.8543    0.9071 H         1 <0>         0.0747
     21 H4         -0.0068   -0.1377   -2.1319 H         1 <0>         0.1378
     22 H5          0.0273   -2.5970   -2.1564 H         1 <0>         0.1288
     23 H6          0.0485   -2.6203    2.1317 H         1 <0>         0.1344
     24 H7          0.0244   -0.1607    2.1343 H         1 <0>         0.1361
     25 H8          0.1111   -7.9193   -0.7971 H         1 <0>         0.2099
     26 H9         -0.4931   -6.9093    2.7939 H         1 <0>         0.1450
     27 H10        -0.3185   -8.2951    1.6905 H         1 <0>         0.1455
     28 H11         2.0362   -7.9179    1.6962 H         1 <0>         0.4266
     29 H12         0.6956   -9.1769    3.6170 H         1 <0>         0.1793
     30 H13         2.2952   -6.8381    4.9617 H         1 <0>         0.1210
     31 H14         1.5026   -8.2542    5.8381 H         1 <0>         0.1344
     32 H15         2.9553   -9.8741    4.5345 H         1 <0>         0.1348
     33 H16         3.7480   -8.4581    3.6581 H         1 <0>         0.1203
     34 H17         1.8745   -6.6352    2.7176 H         1 <0>         0.4286
@<TRIPOS>BOND
     1    1    2 1
     2    1   18 1
     3    1   19 1
     4    1   20 1
     5    2    7 ar
     6    2    3 ar
     7    3    4 ar
     8    3   21 1
     9    4    5 ar
    10    4   22 1
    11    5    6 ar
    12    5    8 1
    13    6    7 ar
    14    6   23 1
    15    7   24 1
    16    8   12 1
    17    8    9 2
    18    9   10 1
    19   10   11 2
    20   10   13 1
    21   11   12 1
    22   11   25 1
    23   13   14 1
    24   13   26 1
    25   13   27 1
    26   14   15 1
    27   14   28 1
    28   14   34 1
    29   15   17 1
    30   15   16 1
    31   15   29 1
    32   16   17 1
    33   16   30 1
    34   16   31 1
    35   17   32 1
    36   17   33 1
@<TRIPOS>MOLECULE
ZINC43393122
   39    40     0     0     0
SMALL
USER_CHARGES

@<TRIPOS>ATOM
      1 C1         -0.0184    1.5028    0.0103 C.3       1 <0>        -0.1195
      2 C2          0.0021   -0.0041    0.0020 C.ar      1 <0>        -0.0793
      3 C3          0.0058   -0.6877   -1.2008 C.ar      1 <0>        -0.0875
      4 C4          0.0245   -2.0710   -1.2171 C.ar      1 <0>        -0.0732
      5 C5          0.0401   -2.7777   -0.0322 C.ar      1 <0>        -0.0929
      6 C6          0.0369   -2.0941    1.1844 C.ar      1 <0>        -0.0343
      7 C7          0.0228   -0.6988    1.1938 C.ar      1 <0>        -0.0716
      8 C8          0.0530   -2.8452    2.4581 C.2       1 <0>         0.1888
      9 N1          0.0475   -2.3902    3.7031 N.2       1 <0>        -0.5097
     10 C9          0.0639   -3.2095    4.7281 C.2       1 <0>        -0.0069
     11 C10         0.0869   -4.5531    4.5211 C.2       1 <0>        -0.1858
     12 S1          0.0771   -4.6117    2.7336 S.3       1 <0>         0.0912
     13 C11         0.0577   -2.6621    6.1321 C.3       1 <0>         0.0748
     14 N2          1.4330   -2.3476    6.5412 N.4       1 <0>        -0.5063
     15 C12         1.4270   -1.8140    7.9098 C.3       1 <0>         0.0239
     16 C13         0.9549   -2.9001    8.8786 C.3       1 <0>        -0.1856
     17 C14         2.8409   -1.3704    8.2906 C.3       1 <0>        -0.1841
     18 C15         0.0274   -2.8075   -2.5318 C.3       1 <0>        -0.1219
     19 H1          1.0042    1.8801    0.0026 H         1 <0>         0.0768
     20 H2         -0.5455    1.8639   -0.8728 H         1 <0>         0.0743
     21 H3         -0.5286    1.8543    0.9071 H         1 <0>         0.0701
     22 H4         -0.0064   -0.1392   -2.1310 H         1 <0>         0.1347
     23 H5          0.0543   -3.8575   -0.0462 H         1 <0>         0.1278
     24 H6          0.0241   -0.1639    2.1321 H         1 <0>         0.1337
     25 H7          0.1025   -5.3611    5.2376 H         1 <0>         0.2096
     26 H8         -0.5477   -1.7563    6.1662 H         1 <0>         0.1446
     27 H9         -0.3620   -3.4054    6.8100 H         1 <0>         0.1460
     28 H10         1.9934   -3.1861    6.5096 H         1 <0>         0.4239
     29 H11         0.7514   -0.9603    7.9640 H         1 <0>         0.1405
     30 H12         0.9504   -2.5041    9.8941 H         1 <0>         0.1072
     31 H13        -0.0524   -3.2161    8.6073 H         1 <0>         0.0814
     32 H14         1.6305   -3.7538    8.8244 H         1 <0>         0.0822
     33 H15         3.1772   -0.5967    7.6004 H         1 <0>         0.0817
     34 H16         2.8364   -0.9745    9.3061 H         1 <0>         0.1078
     35 H17         3.5164   -2.2242    8.2365 H         1 <0>         0.0812
     36 H18         1.0556   -2.9711   -2.8544 H         1 <0>         0.0785
     37 H19        -0.4728   -3.7684   -2.4111 H         1 <0>         0.0716
     38 H20        -0.4986   -2.2157   -3.2809 H         1 <0>         0.0751
     39 H21         1.8216   -1.6596    5.9137 H         1 <0>         0.4310
@<TRIPOS>BOND
     1    1    2 1
     2    1   19 1
     3    1   20 1
     4    1   21 1
     5    2    7 ar
     6    2    3 ar
     7    3    4 ar
     8    3   22 1
     9    4    5 ar
    10    4   18 1
    11    5    6 ar
    12    5   23 1
    13    6    7 ar
    14    6    8 1
    15    7   24 1
    16    8   12 1
    17    8    9 2
    18    9   10 1
    19   10   11 2
    20   10   13 1
    21   11   12 1
    22   11   25 1
    23   13   14 1
    24   13   26 1
    25   13   27 1
    26   14   15 1
    27   14   28 1
    28   14   39 1
    29   15   16 1
    30   15   17 1
    31   15   29 1
    32   16   30 1
    33   16   31 1
    34   16   32 1
    35   17   33 1
    36   17   34 1
    37   17   35 1
    38   18   36 1
    39   18   37 1
    40   18   38 1
@<TRIPOS>MOLECULE
ZINC40999686
   36    37     0     0     0
SMALL
USER_CHARGES

@<TRIPOS>ATOM
      1 C1         -0.0184    1.5028    0.0103 C.3       1 <0>        -0.1224
      2 C2          0.0021   -0.0041    0.0020 C.ar      1 <0>        -0.0780
      3 C3          0.0058   -0.6878   -1.2010 C.ar      1 <0>        -0.0852
      4 C4          0.0245   -2.0709   -1.2172 C.ar      1 <0>        -0.1154
      5 C5          0.0396   -2.7777   -0.0322 C.ar      1 <0>        -0.0698
      6 C6          0.0364   -2.0942    1.1842 C.ar      1 <0>        -0.0389
      7 C7          0.0228   -0.6986    1.1937 C.ar      1 <0>        -0.0867
      8 C8          0.0521   -2.8453    2.4579 C.2       1 <0>         0.1880
      9 N1          0.0753   -4.1548    2.6622 N.2       1 <0>        -0.5095
     10 C9          0.0869   -4.6552    3.8752 C.2       1 <0>        -0.0069
     11 C10         0.0749   -3.8239    4.9511 C.2       1 <0>        -0.1854
     12 S1          0.0525   -2.2315    4.1373 S.3       1 <0>         0.0907
     13 C11         0.1129   -6.1486    4.0755 C.3       1 <0>         0.0742
     14 N2         -1.2582   -6.6735    4.0238 N.4       1 <0>        -0.5066
     15 C12        -1.2328   -8.1292    4.2190 C.3       1 <0>         0.0244
     16 C13        -2.6663   -8.6593    4.2897 C.3       1 <0>        -0.1842
     17 C14        -0.5026   -8.7883    3.0472 C.3       1 <0>        -0.1855
     18 H1          1.0042    1.8801    0.0026 H         1 <0>         0.0788
     19 H2         -0.5455    1.8639   -0.8728 H         1 <0>         0.0753
     20 H3         -0.5286    1.8543    0.9071 H         1 <0>         0.0713
     21 H4         -0.0064   -0.1393   -2.1312 H         1 <0>         0.1353
     22 H5          0.0269   -2.5987   -2.1595 H         1 <0>         0.1368
     23 H6          0.0535   -3.8575   -0.0462 H         1 <0>         0.1339
     24 H7          0.0245   -0.1637    2.1319 H         1 <0>         0.1281
     25 H8          0.0815   -4.0598    6.0050 H         1 <0>         0.2098
     26 H9          0.7087   -6.6104    3.2883 H         1 <0>         0.1460
     27 H10         0.5531   -6.3774    5.0460 H         1 <0>         0.1452
     28 H11        -1.8097   -6.2459    4.7525 H         1 <0>         0.4259
     29 H12        -0.7131   -8.3622    5.1483 H         1 <0>         0.1402
     30 H13        -3.1861   -8.4264    3.3604 H         1 <0>         0.0814
     31 H14        -2.6475   -9.7395    4.4346 H         1 <0>         0.1078
     32 H15        -3.1866   -8.1898    5.1246 H         1 <0>         0.0815
     33 H16        -1.0224   -8.5554    2.1178 H         1 <0>         0.0824
     34 H17         0.5187   -8.4107    2.9968 H         1 <0>         0.0818
     35 H18        -0.4838   -9.8685    3.1920 H         1 <0>         0.1066
     36 H19        -1.6657   -6.4617    3.1254 H         1 <0>         0.4291
@<TRIPOS>BOND
     1    1    2 1
     2    1   18 1
     3    1   19 1
     4    1   20 1
     5    2    7 ar
     6    2    3 ar
     7    3    4 ar
     8    3   21 1
     9    4    5 ar
    10    4   22 1
    11    5    6 ar
    12    5   23 1
    13    6    7 ar
    14    6    8 1
    15    7   24 1
    16    8   12 1
    17    8    9 2
    18    9   10 1
    19   10   11 2
    20   10   13 1
    21   11   12 1
    22   11   25 1
    23   13   14 1
    24   13   26 1
    25   13   27 1
    26   14   15 1
    27   14   28 1
    28   14   36 1
    29   15   16 1
    30   15   17 1
    31   15   29 1
    32   16   30 1
    33   16   31 1
    34   16   32 1
    35   17   33 1
    36   17   34 1
    37   17   35 1
@<TRIPOS>MOLECULE
ZINC50597353
   31    32     0     0     0
SMALL
USER_CHARGES

@<TRIPOS>ATOM
      1 C1         -0.0184    1.5028    0.0103 C.3       1 <0>        -0.1123
      2 C2          0.0021   -0.0041    0.0020 C.ar      1 <0>        -0.1111
      3 C3          0.0058   -0.6859   -1.1962 C.ar      1 <0>        -0.0458
      4 C4          0.0252   -2.0815   -1.2028 C.ar      1 <0>        -0.0827
      5 C5          0.0408   -2.7816    0.0051 C.ar      1 <0>        -0.0236
      6 C6          0.0369   -2.0927    1.1988 C.ar      1 <0>        -0.2096
      7 C7          0.0230   -0.7038    1.2012 C.ar      1 <0>         0.1672
      8 O1          0.0249   -0.0283    2.3798 O.3       1 <0>        -0.3037
      9 C8          0.0469   -0.8102    3.5757 C.3       1 <0>         0.0211
     10 C9          0.0287   -2.8165   -2.4853 C.2       1 <0>         0.1993
     11 N1          0.0403   -4.1238   -2.7059 N.2       1 <0>        -0.5176
     12 C10         0.0417   -4.6087   -3.9259 C.2       1 <0>        -0.0105
     13 C11         0.0311   -3.7642   -4.9906 C.2       1 <0>        -0.1889
     14 S1          0.0105   -2.1821   -4.1568 S.3       1 <0>         0.0859
     15 C12         0.0555   -6.0996   -4.1454 C.3       1 <0>         0.0796
     16 N2          1.4401   -6.5883   -4.1005 N.4       1 <0>        -0.6349
     17 H1          1.0042    1.8801    0.0026 H         1 <0>         0.0762
     18 H2         -0.5455    1.8639   -0.8728 H         1 <0>         0.0711
     19 H3         -0.5286    1.8543    0.9071 H         1 <0>         0.0780
     20 H4         -0.0067   -0.1409   -2.1285 H         1 <0>         0.1355
     21 H5          0.0554   -3.8615    0.0041 H         1 <0>         0.1374
     22 H6          0.0486   -2.6335    2.1336 H         1 <0>         0.1422
     23 H7         -0.8342   -1.4512    3.6070 H         1 <0>         0.0616
     24 H8          0.9455   -1.4269    3.5901 H         1 <0>         0.0612
     25 H9          0.0461   -0.1490    4.4422 H         1 <0>         0.1093
     26 H10         0.0309   -3.9868   -6.0474 H         1 <0>         0.2092
     27 H11        -0.5274   -6.5873   -3.3641 H         1 <0>         0.1465
     28 H12        -0.3788   -6.3276   -5.1187 H         1 <0>         0.1477
     29 H13         1.9798   -6.1368   -4.8237 H         1 <0>         0.4337
     30 H14         1.8422   -6.3772   -3.1994 H         1 <0>         0.4382
     31 H15         1.4494   -7.5865   -4.2474 H         1 <0>         0.4399
@<TRIPOS>BOND
     1    1    2 1
     2    1   17 1
     3    1   18 1
     4    1   19 1
     5    2    7 ar
     6    2    3 ar
     7    3    4 ar
     8    3   20 1
     9    4    5 ar
    10    4   10 1
    11    5    6 ar
    12    5   21 1
    13    6    7 ar
    14    6   22 1
    15    7    8 1
    16    8    9 1
    17    9   23 1
    18    9   24 1
    19    9   25 1
    20   10   14 1
    21   10   11 2
    22   11   12 1
    23   12   13 2
    24   12   15 1
    25   13   14 1
    26   13   26 1
    27   15   16 1
    28   15   27 1
    29   15   28 1
    30   16   29 1
    31   16   30 1
    32   16   31 1
@<TRIPOS>MOLECULE
ZINC04390716
   28    30     0     0     0
SMALL
USER_CHARGES
2-(4-chlorophenyl)-4-(3,4-dichlorophenyl)-thiazole
@<TRIPOS>ATOM
      1 C1         -0.0126    1.0758    0.0080 C.ar      1 <0>        -0.0777
      2 C2          1.1717    1.7830    0.0004 C.ar      1 <0>        -0.1073
      3 C3          1.1544    3.1677    0.0081 C.ar      1 <0>        -0.0163
      4 C4         -0.0502    3.8505    0.0233 C.ar      1 <0>        -0.1099
      5 C5         -1.2408    3.1540    0.0309 C.ar      1 <0>        -0.0560
      6 C6         -1.2297    1.7585    0.0174 C.ar      1 <0>        -0.0160
      7 C7         -2.5027    1.0062    0.0193 C.2       1 <0>         0.1596
      8 N1         -3.7450    1.4622    0.0331 N.2       1 <0>        -0.4872
      9 C8         -4.7774    0.6401    0.0277 C.2       1 <0>         0.0973
     10 C9         -4.5598   -0.7132    0.0198 C.2       1 <0>        -0.1865
     11 S1         -2.7722   -0.7609    0.0115 S.3       1 <0>         0.0431
     12 C10        -6.1609    1.1757    0.0370 C.ar      1 <0>        -0.0079
     13 C11        -6.3774    2.5527    0.0450 C.ar      1 <0>        -0.0698
     14 C12        -7.6658    3.0466    0.0538 C.ar      1 <0>        -0.0983
     15 C13        -8.7432    2.1772    0.0551 C.ar      1 <0>        -0.0265
     16 C14        -8.5339    0.8078    0.0472 C.ar      1 <0>        -0.0303
     17 C15        -7.2478    0.3040    0.0321 C.ar      1 <0>        -0.0866
     18 Cl1        -9.8897   -0.2763    0.0484 Cl        1 <0>        -0.0419
     19 Cl2       -10.3616    2.8051    0.0673 Cl        1 <0>        -0.0434
     20 Cl3         2.6489    4.0510   -0.0020 Cl        1 <0>        -0.0572
     21 H1          0.0021   -0.0041    0.0020 H         1 <0>         0.1378
     22 H2          2.1142    1.2559   -0.0118 H         1 <0>         0.1444
     23 H3         -0.0575    4.9304    0.0289 H         1 <0>         0.1441
     24 H4         -2.1797    3.6876    0.0424 H         1 <0>         0.1463
     25 H5         -5.2711   -1.5258    0.0191 H         1 <0>         0.2046
     26 H6         -5.5379    3.2321    0.0440 H         1 <0>         0.1492
     27 H7         -7.8341    4.1134    0.0600 H         1 <0>         0.1478
     28 H8         -7.0851   -0.7636    0.0211 H         1 <0>         0.1446
@<TRIPOS>BOND
     1    1    6 ar
     2    1    2 ar
     3    1   21 1
     4    2    3 ar
     5    2   22 1
     6    3    4 ar
     7    3   20 1
     8    4    5 ar
     9    4   23 1
    10    5    6 ar
    11    5   24 1
    12    6    7 1
    13    7   11 1
    14    7    8 2
    15    8    9 1
    16    9   10 2
    17    9   12 1
    18   10   11 1
    19   10   25 1
    20   12   17 ar
    21   12   13 ar
    22   13   14 ar
    23   13   26 1
    24   14   15 ar
    25   14   27 1
    26   15   16 ar
    27   15   19 1
    28   16   17 ar
    29   16   18 1
    30   17   28 1
@<TRIPOS>MOLECULE
ZINC80803080
   31    32     0     0     0
SMALL
USER_CHARGES

@<TRIPOS>ATOM
      1 C1         -0.0187    1.5258    0.0104 C.3       1 <0>        -0.1801
      2 C2          0.0021   -0.0041    0.0020 C.3       1 <0>         0.1155
      3 H1          0.5293   -0.3651    0.8851 H         1 <0>         0.1511
      4 C3          0.7074   -0.4901   -1.2379 C.2       1 <0>         0.0015
      5 C4          2.0614   -0.6067   -1.2490 C.2       1 <0>        -0.1751
      6 S1          2.3277   -1.2033   -2.9139 S.3       1 <0>         0.1078
      7 C5          0.6108   -1.2322   -3.4122 C.2       1 <0>         0.1808
      8 N1          0.0145   -0.8066   -2.3071 N.2       1 <0>        -0.5316
      9 C6          0.0160   -1.6284   -4.7061 C.ar      1 <0>        -0.0371
     10 C7         -1.3670   -1.5693   -4.8878 C.ar      1 <0>        -0.0454
     11 C8         -1.9184   -1.9391   -6.0959 C.ar      1 <0>        -0.1342
     12 C9         -1.1005   -2.3705   -7.1317 C.ar      1 <0>         0.1568
     13 C10         0.2765   -2.4309   -6.9553 C.ar      1 <0>        -0.0657
     14 C11         0.8360   -2.0570   -5.7511 C.ar      1 <0>        -0.0619
     15 Cl1         1.2941   -2.9716   -8.2537 Cl        1 <0>        -0.0298
     16 O1         -1.6481   -2.7349   -8.3207 O.3       1 <0>        -0.4817
     17 N2         -1.3761   -0.5125    0.0124 N.4       1 <0>        -0.5007
     18 C12        -2.0260   -0.1396    1.2760 C.3       1 <0>        -0.0522
     19 H2          1.0039    1.9031    0.0027 H         1 <0>         0.1065
     20 H3         -0.5459    1.8868   -0.8726 H         1 <0>         0.0841
     21 H4         -0.5289    1.8773    0.9072 H         1 <0>         0.0901
     22 H5          2.7781   -0.3969   -0.4688 H         1 <0>         0.2110
     23 H6         -2.0042   -1.2346   -4.0826 H         1 <0>         0.1430
     24 H7         -2.9882   -1.8935   -6.2368 H         1 <0>         0.1528
     25 H8          1.9067   -2.0999   -5.6157 H         1 <0>         0.1438
     26 H9         -1.7334   -2.0087   -8.9535 H         1 <0>         0.4057
     27 H10        -1.8879   -0.1129   -0.7598 H         1 <0>         0.4344
     28 H11        -3.0486   -0.5169    1.2837 H         1 <0>         0.1287
     29 H12        -1.4732   -0.5714    2.1102 H         1 <0>         0.1244
     30 H13        -2.0386    0.9461    1.3715 H         1 <0>         0.1257
     31 H14        -1.3644   -1.5176   -0.0760 H         1 <0>         0.4318
@<TRIPOS>BOND
     1    1    2 1
     2    1   19 1
     3    1   20 1
     4    1   21 1
     5    2    3 1
     6    2    4 1
     7    2   17 1
     8    4    8 1
     9    4    5 2
    10    5    6 1
    11    5   22 1
    12    6    7 1
    13    7    8 2
    14    7    9 1
    15    9   14 ar
    16    9   10 ar
    17   10   11 ar
    18   10   23 1
    19   11   12 ar
    20   11   24 1
    21   12   13 ar
    22   12   16 1
    23   13   14 ar
    24   13   15 1
    25   14   25 1
    26   16   26 1
    27   17   18 1
    28   17   27 1
    29   17   31 1
    30   18   28 1
    31   18   29 1
    32   18   30 1
@<TRIPOS>MOLECULE
ZINC46768234
   29    30     0     0     0
SMALL
USER_CHARGES

@<TRIPOS>ATOM
      1 C1         -0.0157    1.3058    0.0092 C.2       1 <0>        -0.1606
      2 C2          0.0021   -0.0041    0.0020 C.2       1 <0>        -0.1804
      3 C3         -1.2926   -0.7753    0.0102 C.3       1 <0>         0.1453
      4 N1         -1.3176   -1.6997   -1.1260 N.am      1 <0>        -0.7104
      5 C4         -2.3857   -2.4981   -1.3218 C.2       1 <0>         0.5904
      6 O1         -3.3288   -2.4510   -0.5552 O.2       1 <0>        -0.5347
      7 C5         -2.4108   -3.4276   -2.4643 C.2       1 <0>        -0.0137
      8 C6         -3.4937   -4.2396   -2.6752 C.2       1 <0>        -0.1942
      9 S1         -3.0499   -5.0848   -4.0614 S.3       1 <0>         0.1854
     10 C7         -1.4501   -4.3367   -4.3140 C.2       1 <0>         0.1037
     11 N2         -1.3879   -3.4861   -3.3058 N.2       1 <0>        -0.4540
     12 C8         -0.4556   -4.5973   -5.3776 C.ar      1 <0>         0.0002
     13 C9          0.7531   -3.9001   -5.3926 C.ar      1 <0>        -0.0688
     14 C10         1.6769   -4.1472   -6.3869 C.ar      1 <0>        -0.1036
     15 C11         1.4076   -5.0841   -7.3685 C.ar      1 <0>        -0.0914
     16 C12         0.2105   -5.7795   -7.3598 C.ar      1 <0>        -0.0326
     17 C13        -0.7198   -5.5450   -6.3663 C.ar      1 <0>        -0.0883
     18 Cl1        -0.1187   -6.9533   -8.5957 Cl        1 <0>        -0.0565
     19 H1          0.9122    1.8585    0.0033 H         1 <0>         0.1055
     20 H2         -0.9582    1.8330    0.0166 H         1 <0>         0.1010
     21 H3          0.9446   -0.5313   -0.0098 H         1 <0>         0.1168
     22 H4         -1.3737   -1.3393    0.9394 H         1 <0>         0.0787
     23 H5         -2.1295   -0.0812   -0.0676 H         1 <0>         0.0742
     24 H6         -0.5655   -1.7372   -1.7373 H         1 <0>         0.4110
     25 H7         -4.4029   -4.3176   -2.0977 H         1 <0>         0.2122
     26 H8          0.9649   -3.1681   -4.6272 H         1 <0>         0.1422
     27 H9          2.6124   -3.6077   -6.3993 H         1 <0>         0.1429
     28 H10         2.1340   -5.2736   -8.1450 H         1 <0>         0.1411
     29 H11        -1.6515   -6.0913   -6.3573 H         1 <0>         0.1386
@<TRIPOS>BOND
     1    1    2 2
     2    1   19 1
     3    1   20 1
     4    2    3 1
     5    2   21 1
     6    3    4 1
     7    3   22 1
     8    3   23 1
     9    4    5 am
    10    4   24 1
    11    5    6 2
    12    5    7 1
    13    7   11 1
    14    7    8 2
    15    8    9 1
    16    8   25 1
    17    9   10 1
    18   10   11 2
    19   10   12 1
    20   12   17 ar
    21   12   13 ar
    22   13   14 ar
    23   13   26 1
    24   14   15 ar
    25   14   27 1
    26   15   16 ar
    27   15   28 1
    28   16   17 ar
    29   16   18 1
    30   17   29 1
@<TRIPOS>MOLECULE
ZINC86583996
   37    38     0     0     0
SMALL
USER_CHARGES

@<TRIPOS>ATOM
      1 C1         -0.0187    1.5258    0.0104 C.3       1 <0>        -0.1858
      2 C2          0.0021   -0.0041    0.0020 C.3       1 <0>         0.0241
      3 C3          0.7421   -0.5109    1.2415 C.3       1 <0>        -0.1842
      4 N1         -1.3761   -0.5125    0.0124 N.4       1 <0>        -0.5064
      5 C4         -2.0500   -0.1262   -1.2343 C.3       1 <0>         0.0748
      6 C5         -3.4638   -0.6478   -1.2236 C.2       1 <0>        -0.0064
      7 C6         -4.4816    0.1532   -0.8121 C.2       1 <0>        -0.1842
      8 S1         -5.8725   -0.9542   -1.0063 S.3       1 <0>         0.0934
      9 C7         -4.9488   -2.3598   -1.6129 C.2       1 <0>         0.1910
     10 N2         -3.7148   -1.8749   -1.6170 N.2       1 <0>        -0.5107
     11 C8         -5.4316   -3.6999   -2.0080 C.ar      1 <0>        -0.0716
     12 C9         -4.5277   -4.6657   -2.4542 C.ar      1 <0>        -0.0147
     13 C10        -4.9811   -5.9146   -2.8214 C.ar      1 <0>        -0.2016
     14 C11        -6.3352   -6.2130   -2.7485 C.ar      1 <0>         0.1769
     15 C12        -7.2385   -5.2548   -2.3050 C.ar      1 <0>        -0.0725
     16 C13        -6.7915   -4.0046   -1.9303 C.ar      1 <0>        -0.0365
     17 Cl1        -8.9304   -5.6332   -2.2164 Cl        1 <0>        -0.0306
     18 O1         -6.7782   -7.4450   -3.1122 O.3       1 <0>        -0.2945
     19 C14        -5.7960   -8.3818   -3.5592 C.3       1 <0>         0.0197
     20 H1          1.0039    1.9031    0.0027 H         1 <0>         0.1072
     21 H2         -0.5459    1.8868   -0.8726 H         1 <0>         0.0815
     22 H3         -0.5289    1.8773    0.9072 H         1 <0>         0.0823
     23 H4          0.5123   -0.3556   -0.8948 H         1 <0>         0.1404
     24 H5          0.2319   -0.1594    2.1383 H         1 <0>         0.0813
     25 H6          0.7568   -1.6008    1.2356 H         1 <0>         0.0816
     26 H7          1.7647   -0.1336    1.2338 H         1 <0>         0.1077
     27 H8         -1.3629   -1.5185    0.0898 H         1 <0>         0.4309
     28 H9         -2.0643    0.9605   -1.3179 H         1 <0>         0.1460
     29 H10        -1.5132   -0.5489   -2.0836 H         1 <0>         0.1447
     30 H11        -4.4573    1.1753   -0.4640 H         1 <0>         0.2098
     31 H12        -3.4743   -4.4346   -2.5120 H         1 <0>         0.1445
     32 H13        -4.2821   -6.6620   -3.1667 H         1 <0>         0.1513
     33 H14        -7.4932   -3.2615   -1.5814 H         1 <0>         0.1456
     34 H15        -5.2863   -7.9831   -4.4363 H         1 <0>         0.0642
     35 H16        -5.0703   -8.5543   -2.7644 H         1 <0>         0.0637
     36 H17        -6.2822   -9.3224   -3.8178 H         1 <0>         0.1126
     37 H18        -1.8730   -0.1212    0.7986 H         1 <0>         0.4242
@<TRIPOS>BOND
     1    1    2 1
     2    1   20 1
     3    1   21 1
     4    1   22 1
     5    2    3 1
     6    2    4 1
     7    2   23 1
     8    3   24 1
     9    3   25 1
    10    3   26 1
    11    4    5 1
    12    4   27 1
    13    4   37 1
    14    5    6 1
    15    5   28 1
    16    5   29 1
    17    6   10 1
    18    6    7 2
    19    7    8 1
    20    7   30 1
    21    8    9 1
    22    9   10 2
    23    9   11 1
    24   11   16 ar
    25   11   12 ar
    26   12   13 ar
    27   12   31 1
    28   13   14 ar
    29   13   32 1
    30   14   15 ar
    31   14   18 1
    32   15   16 ar
    33   15   17 1
    34   16   33 1
    35   18   19 1
    36   19   34 1
    37   19   35 1
    38   19   36 1
@<TRIPOS>MOLECULE
ZINC80803076
   31    32     0     0     0
SMALL
USER_CHARGES

@<TRIPOS>ATOM
      1 C1         -0.0187    1.5258    0.0104 C.3       1 <0>        -0.1804
      2 C2          0.0021   -0.0041    0.0020 C.3       1 <0>         0.1156
      3 H1          0.5293   -0.3651    0.8851 H         1 <0>         0.1512
      4 C3         -1.4117   -0.5257    0.0127 C.2       1 <0>         0.0014
      5 C4         -2.0763   -0.6665    1.1898 C.2       1 <0>        -0.1750
      6 S1         -3.6458   -1.2976    0.6094 S.3       1 <0>         0.1079
      7 C5         -3.2466   -1.3050   -1.1335 C.2       1 <0>         0.1807
      8 N1         -2.0052   -0.8396   -1.1154 N.2       1 <0>        -0.5316
      9 C6         -4.0782   -1.7150   -2.2847 C.ar      1 <0>        -0.0370
     10 C7         -3.5625   -1.6463   -3.5802 C.ar      1 <0>        -0.0455
     11 C8         -4.3405   -2.0298   -4.6515 C.ar      1 <0>        -0.1342
     12 C9         -5.6362   -2.4838   -4.4440 C.ar      1 <0>         0.1568
     13 C10        -6.1537   -2.5539   -3.1563 C.ar      1 <0>        -0.0657
     14 C11        -5.3790   -2.1772   -2.0787 C.ar      1 <0>        -0.0619
     15 Cl1        -7.7744   -3.1218   -2.9028 Cl        1 <0>        -0.0297
     16 O1         -6.4001   -2.8601   -5.5028 O.3       1 <0>        -0.4815
     17 N2          0.6897   -0.4778   -1.2066 N.4       1 <0>        -0.5006
     18 C12         2.1002   -0.0703   -1.1590 C.3       1 <0>        -0.0522
     19 H2          1.0039    1.9031    0.0027 H         1 <0>         0.0902
     20 H3         -0.5459    1.8868   -0.8726 H         1 <0>         0.0842
     21 H4         -0.5289    1.8773    0.9072 H         1 <0>         0.1066
     22 H5         -1.7475   -0.4560    2.1967 H         1 <0>         0.2110
     23 H6         -2.5551   -1.2926   -3.7429 H         1 <0>         0.1429
     24 H7         -3.9418   -1.9768   -5.6538 H         1 <0>         0.1528
     25 H8         -5.7799   -2.2360   -1.0776 H         1 <0>         0.1438
     26 H9         -6.3194   -3.7958   -5.7332 H         1 <0>         0.4055
     27 H10         0.6317   -1.4840   -1.2540 H         1 <0>         0.4315
     28 H11         2.6104   -0.4218   -2.0558 H         1 <0>         0.1287
     29 H12         2.1628    1.0167   -1.1079 H         1 <0>         0.1257
     30 H13         2.5740   -0.5034   -0.2781 H         1 <0>         0.1244
     31 H14         0.2511   -0.0769   -2.0221 H         1 <0>         0.4345
@<TRIPOS>BOND
     1    1    2 1
     2    1   19 1
     3    1   20 1
     4    1   21 1
     5    2    3 1
     6    2    4 1
     7    2   17 1
     8    4    8 1
     9    4    5 2
    10    5    6 1
    11    5   22 1
    12    6    7 1
    13    7    8 2
    14    7    9 1
    15    9   14 ar
    16    9   10 ar
    17   10   11 ar
    18   10   23 1
    19   11   12 ar
    20   11   24 1
    21   12   13 ar
    22   12   16 1
    23   13   14 ar
    24   13   15 1
    25   14   25 1
    26   16   26 1
    27   17   18 1
    28   17   27 1
    29   17   31 1
    30   18   28 1
    31   18   29 1
    32   18   30 1
@<TRIPOS>MOLECULE
ZINC70842710
   27    28     0     0     0
SMALL
USER_CHARGES

@<TRIPOS>ATOM
      1 C1         -0.0187    1.5258    0.0104 C.3       1 <0>        -0.1754
      2 C2          0.0021   -0.0041    0.0020 C.3       1 <0>         0.1096
      3 H1          0.5123   -0.3556   -0.8948 H         1 <0>         0.1588
      4 C3          0.7309   -0.5033    1.2229 C.2       1 <0>         0.0387
      5 C4          0.1264   -1.3834    2.0643 C.2       1 <0>        -0.2552
      6 S1          1.4142   -1.6112    3.2843 S.3       1 <0>         0.1199
      7 C5          2.6138   -0.5124    2.5424 C.2       1 <0>         0.1851
      8 N1          1.9524   -0.0932    1.4727 N.2       1 <0>        -0.4915
      9 C6          3.9780   -0.1679    2.9969 C.ar      1 <0>        -0.0090
     10 C7          4.7551    0.7293    2.2625 C.ar      1 <0>        -0.0591
     11 C8          6.0271    1.0481    2.6905 C.ar      1 <0>        -0.0806
     12 C9          6.5346    0.4803    3.8466 C.ar      1 <0>        -0.0475
     13 C10         5.7681   -0.4117    4.5812 C.ar      1 <0>         0.1192
     14 C11         4.4908   -0.7340    4.1644 C.ar      1 <0>        -0.1112
     15 F1          6.2692   -0.9628    5.7084 F         1 <0>        -0.1125
     16 Cl1         8.1365    0.8862    4.3784 Cl        1 <0>        -0.0209
     17 N2         -1.3761   -0.5125    0.0124 N.4       1 <0>        -0.6353
     18 H2          1.0039    1.9031    0.0027 H         1 <0>         0.1154
     19 H3         -0.5459    1.8868   -0.8726 H         1 <0>         0.0889
     20 H4         -0.5289    1.8773    0.9072 H         1 <0>         0.0810
     21 H5         -0.8587   -1.8229    2.0111 H         1 <0>         0.2004
     22 H6          4.3612    1.1730    1.3601 H         1 <0>         0.1541
     23 H7          6.6286    1.7420    2.1221 H         1 <0>         0.1594
     24 H8          3.8922   -1.4254    4.7389 H         1 <0>         0.1507
     25 H9         -1.8484   -0.1871    0.8426 H         1 <0>         0.4353
     26 H10        -1.8641   -0.1783   -0.8050 H         1 <0>         0.4447
     27 H11        -1.3624   -1.5214    0.0069 H         1 <0>         0.4369
@<TRIPOS>BOND
     1    1    2 1
     2    1   18 1
     3    1   19 1
     4    1   20 1
     5    2    3 1
     6    2    4 1
     7    2   17 1
     8    4    8 1
     9    4    5 2
    10    5    6 1
    11    5   21 1
    12    6    7 1
    13    7    8 2
    14    7    9 1
    15    9   14 ar
    16    9   10 ar
    17   10   11 ar
    18   10   22 1
    19   11   12 ar
    20   11   23 1
    21   12   13 ar
    22   12   16 1
    23   13   14 ar
    24   13   15 1
    25   14   24 1
    26   17   25 1
    27   17   26 1
    28   17   27 1
@<TRIPOS>MOLECULE
ZINC70842598
   27    28     0     0     0
SMALL
USER_CHARGES

@<TRIPOS>ATOM
      1 C1         -0.0187    1.5258    0.0104 C.3       1 <0>        -0.1771
      2 C2          0.0021   -0.0041    0.0020 C.3       1 <0>         0.1167
      3 H1         -1.0205   -0.3814    0.0098 H         1 <0>         0.1528
      4 C3          0.7309   -0.5033    1.2229 C.2       1 <0>        -0.0135
      5 C4          0.1264   -1.3833    2.0642 C.2       1 <0>        -0.1954
      6 S1          1.4141   -1.6112    3.2843 S.3       1 <0>         0.1470
      7 C5          2.6138   -0.5124    2.5425 C.2       1 <0>         0.1549
      8 N1          1.9525   -0.0932    1.4727 N.2       1 <0>        -0.5027
      9 C6          3.9778   -0.1681    2.9970 C.ar      1 <0>        -0.0205
     10 C7          4.7554    0.7289    2.2630 C.ar      1 <0>        -0.0429
     11 C8          6.0272    1.0464    2.6918 C.ar      1 <0>        -0.1032
     12 C9          6.5341    0.4769    3.8481 C.ar      1 <0>         0.0006
     13 C10         5.7686   -0.4135    4.5811 C.ar      1 <0>        -0.0956
     14 C11         4.4914   -0.7347    4.1656 C.ar      1 <0>        -0.0079
     15 Cl1         3.5294   -1.8459    5.0894 Cl        1 <0>        -0.0150
     16 Cl2         8.1363    0.8810    4.3802 Cl        1 <0>        -0.0287
     17 N2          0.6897   -0.4778   -1.2066 N.4       1 <0>        -0.6341
     18 H2          1.0039    1.9031    0.0027 H         1 <0>         0.0895
     19 H3         -0.5459    1.8868   -0.8726 H         1 <0>         0.0859
     20 H4         -0.5289    1.8773    0.9072 H         1 <0>         0.1035
     21 H5         -0.8585   -1.8230    2.0107 H         1 <0>         0.2076
     22 H6          4.3620    1.1734    1.3607 H         1 <0>         0.1540
     23 H7          6.6294    1.7404    2.1243 H         1 <0>         0.1551
     24 H8          6.1692   -0.8544    5.4820 H         1 <0>         0.1598
     25 H9          0.2017   -0.1436   -2.0240 H         1 <0>         0.4371
     26 H10         1.6363   -0.1286   -1.2138 H         1 <0>         0.4375
     27 H11         0.7033   -1.4867   -1.2121 H         1 <0>         0.4347
@<TRIPOS>BOND
     1    1    2 1
     2    1   18 1
     3    1   19 1
     4    1   20 1
     5    2    3 1
     6    2    4 1
     7    2   17 1
     8    4    8 1
     9    4    5 2
    10    5    6 1
    11    5   21 1
    12    6    7 1
    13    7    8 2
    14    7    9 1
    15    9   14 ar
    16    9   10 ar
    17   10   11 ar
    18   10   22 1
    19   11   12 ar
    20   11   23 1
    21   12   13 ar
    22   12   16 1
    23   13   14 ar
    24   13   24 1
    25   14   15 1
    26   17   25 1
    27   17   26 1
    28   17   27 1
@<TRIPOS>MOLECULE
ZINC70842594
   27    28     0     0     0
SMALL
USER_CHARGES

@<TRIPOS>ATOM
      1 C1         -0.0187    1.5258    0.0104 C.3       1 <0>        -0.1748
      2 C2          0.0021   -0.0041    0.0020 C.3       1 <0>         0.1090
      3 H1          0.5123   -0.3556   -0.8948 H         1 <0>         0.1568
      4 C3          0.7309   -0.5033    1.2229 C.2       1 <0>         0.0340
      5 C4          0.1264   -1.3833    2.0642 C.2       1 <0>        -0.2800
      6 S1          1.4141   -1.6112    3.2843 S.3       1 <0>         0.1544
      7 C5          2.6138   -0.5124    2.5425 C.2       1 <0>         0.1684
      8 N1          1.9525   -0.0932    1.4727 N.2       1 <0>        -0.4893
      9 C6          3.9778   -0.1681    2.9970 C.ar      1 <0>        -0.0245
     10 C7          4.7554    0.7289    2.2630 C.ar      1 <0>        -0.0381
     11 C8          6.0272    1.0464    2.6918 C.ar      1 <0>        -0.1030
     12 C9          6.5341    0.4769    3.8481 C.ar      1 <0>         0.0025
     13 C10         5.7686   -0.4135    4.5811 C.ar      1 <0>        -0.0968
     14 C11         4.4914   -0.7347    4.1656 C.ar      1 <0>        -0.0063
     15 Cl1         3.5294   -1.8459    5.0894 Cl        1 <0>        -0.0164
     16 Cl2         8.1363    0.8810    4.3802 Cl        1 <0>        -0.0285
     17 N2         -1.3761   -0.5125    0.0124 N.4       1 <0>        -0.6346
     18 H2          1.0039    1.9031    0.0027 H         1 <0>         0.1146
     19 H3         -0.5459    1.8868   -0.8726 H         1 <0>         0.0877
     20 H4         -0.5289    1.8773    0.9072 H         1 <0>         0.0804
     21 H5         -0.8585   -1.8230    2.0107 H         1 <0>         0.1955
     22 H6          4.3620    1.1734    1.3607 H         1 <0>         0.1572
     23 H7          6.6294    1.7404    2.1243 H         1 <0>         0.1564
     24 H8          6.1692   -0.8544    5.4820 H         1 <0>         0.1601
     25 H9         -1.3624   -1.5214    0.0069 H         1 <0>         0.4367
     26 H10        -1.8484   -0.1871    0.8426 H         1 <0>         0.4350
     27 H11        -1.8641   -0.1783   -0.8050 H         1 <0>         0.4436
@<TRIPOS>BOND
     1    1    2 1
     2    1   18 1
     3    1   19 1
     4    1   20 1
     5    2    3 1
     6    2    4 1
     7    2   17 1
     8    4    8 1
     9    4    5 2
    10    5    6 1
    11    5   21 1
    12    6    7 1
    13    7    8 2
    14    7    9 1
    15    9   14 ar
    16    9   10 ar
    17   10   11 ar
    18   10   22 1
    19   11   12 ar
    20   11   23 1
    21   12   13 ar
    22   12   16 1
    23   13   14 ar
    24   13   24 1
    25   14   15 1
    26   17   25 1
    27   17   26 1
    28   17   27 1
@<TRIPOS>MOLECULE
ZINC41010017
   30    31     0     0     0
SMALL
USER_CHARGES

@<TRIPOS>ATOM
      1 C1         -0.0187    1.5258    0.0104 C.3       1 <0>        -0.1900
      2 C2          0.0021   -0.0041    0.0020 C.3       1 <0>        -0.0095
      3 N1         -1.3761   -0.5125    0.0124 N.4       1 <0>        -0.5090
      4 C3         -1.3562   -1.9814    0.0044 C.3       1 <0>         0.0777
      5 C4         -2.7700   -2.5030    0.0151 C.2       1 <0>        -0.0157
      6 C5         -3.3825   -2.8333   -1.1525 C.2       1 <0>        -0.2011
      7 S1         -4.9782   -3.3692   -0.5480 S.3       1 <0>         0.1451
      8 C6         -4.6559   -3.0955    1.1893 C.2       1 <0>         0.1551
      9 N2         -3.4099   -2.6442    1.1523 N.2       1 <0>        -0.4962
     10 C7         -5.5393   -3.3176    2.3537 C.ar      1 <0>        -0.0208
     11 C8         -5.0863   -3.0290    3.6419 C.ar      1 <0>        -0.0419
     12 C9         -5.9147   -3.2382    4.7245 C.ar      1 <0>        -0.1030
     13 C10        -7.1942   -3.7343    4.5361 C.ar      1 <0>         0.0006
     14 C11        -7.6500   -4.0227    3.2613 C.ar      1 <0>        -0.0959
     15 C12        -6.8323   -3.8117    2.1687 C.ar      1 <0>        -0.0078
     16 Cl1        -7.4075   -4.1670    0.5698 Cl        1 <0>        -0.0156
     17 Cl2        -8.2301   -3.9958    5.9043 Cl        1 <0>        -0.0291
     18 H1          1.0039    1.9031    0.0027 H         1 <0>         0.1081
     19 H2         -0.5459    1.8868   -0.8726 H         1 <0>         0.0804
     20 H3         -0.5289    1.8773    0.9072 H         1 <0>         0.0806
     21 H4          0.5123   -0.3556   -0.8948 H         1 <0>         0.1323
     22 H5          0.5293   -0.3651    0.8851 H         1 <0>         0.1325
     23 H6         -1.8484   -0.1871    0.8426 H         1 <0>         0.4305
     24 H7         -0.8460   -2.3329   -0.8924 H         1 <0>         0.1451
     25 H8         -0.8290   -2.3425    0.8874 H         1 <0>         0.1442
     26 H9         -3.0092   -2.7854   -2.1648 H         1 <0>         0.2075
     27 H10        -4.0888   -2.6428    3.7908 H         1 <0>         0.1550
     28 H11        -5.5649   -3.0151    5.7216 H         1 <0>         0.1554
     29 H12        -8.6486   -4.4093    3.1206 H         1 <0>         0.1597
     30 H13        -1.8641   -0.1783   -0.8050 H         1 <0>         0.4260
@<TRIPOS>BOND
     1    1    2 1
     2    1   18 1
     3    1   19 1
     4    1   20 1
     5    2    3 1
     6    2   21 1
     7    2   22 1
     8    3    4 1
     9    3   23 1
    10    3   30 1
    11    4    5 1
    12    4   24 1
    13    4   25 1
    14    5    9 1
    15    5    6 2
    16    6    7 1
    17    6   26 1
    18    7    8 1
    19    8    9 2
    20    8   10 1
    21   10   15 ar
    22   10   11 ar
    23   11   12 ar
    24   11   27 1
    25   12   13 ar
    26   12   28 1
    27   13   14 ar
    28   13   17 1
    29   14   15 ar
    30   14   29 1
    31   15   16 1
@<TRIPOS>MOLECULE
ZINC41010140
   33    34     0     0     0
SMALL
USER_CHARGES

@<TRIPOS>ATOM
      1 C1         -0.0187    1.5258    0.0104 C.3       1 <0>        -0.1840
      2 C2          0.0021   -0.0041    0.0020 C.3       1 <0>         0.0245
      3 C3          0.7421   -0.5109    1.2415 C.3       1 <0>        -0.1854
      4 N1         -1.3761   -0.5125    0.0124 N.4       1 <0>        -0.5070
      5 C4         -1.3591   -1.9758   -0.1163 C.3       1 <0>         0.0738
      6 C5         -2.7729   -2.4974   -0.1056 C.2       1 <0>        -0.0154
      7 C6         -3.4210   -2.7315   -1.2772 C.2       1 <0>        -0.1998
      8 S1         -4.9987   -3.3160   -0.6707 S.3       1 <0>         0.1435
      9 C7         -4.6238   -3.1851    1.0726 C.2       1 <0>         0.1491
     10 N2         -3.3786   -2.7315    1.0351 N.2       1 <0>        -0.4779
     11 C8         -5.4720   -3.5022    2.2411 C.ar      1 <0>        -0.0169
     12 C9         -4.9801   -3.3196    3.5353 C.ar      1 <0>         0.0162
     13 C10        -5.7783   -3.6175    4.6222 C.ar      1 <0>        -0.1038
     14 C11        -7.0622   -4.0956    4.4312 C.ar      1 <0>        -0.0628
     15 C12        -7.5559   -4.2794    3.1521 C.ar      1 <0>        -0.0979
     16 C13        -6.7710   -3.9803    2.0559 C.ar      1 <0>        -0.0111
     17 Cl1        -7.3953   -4.2043    0.4516 Cl        1 <0>        -0.0170
     18 Cl2        -3.3689   -2.7202    3.7772 Cl        1 <0>        -0.0257
     19 H1          1.0039    1.9031    0.0027 H         1 <0>         0.1076
     20 H2         -0.5459    1.8868   -0.8726 H         1 <0>         0.0816
     21 H3         -0.5289    1.8773    0.9072 H         1 <0>         0.0811
     22 H4          0.5123   -0.3556   -0.8948 H         1 <0>         0.1403
     23 H5          0.2319   -0.1594    2.1383 H         1 <0>         0.0815
     24 H6          0.7568   -1.6008    1.2356 H         1 <0>         0.0816
     25 H7          1.7647   -0.1336    1.2338 H         1 <0>         0.1066
     26 H8         -1.8225   -0.2564    0.8803 H         1 <0>         0.4286
     27 H9         -0.8769   -2.2525   -1.0538 H         1 <0>         0.1446
     28 H10        -0.8062   -2.4075    0.7180 H         1 <0>         0.1445
     29 H11        -3.0782   -2.6007   -2.2930 H         1 <0>         0.2066
     30 H12        -5.3990   -3.4771    5.6236 H         1 <0>         0.1542
     31 H13        -7.6820   -4.3269    5.2849 H         1 <0>         0.1569
     32 H14        -8.5591   -4.6534    3.0105 H         1 <0>         0.1558
     33 H15        -1.8879   -0.1129   -0.7598 H         1 <0>         0.4259
@<TRIPOS>BOND
     1    1    2 1
     2    1   19 1
     3    1   20 1
     4    1   21 1
     5    2    3 1
     6    2    4 1
     7    2   22 1
     8    3   23 1
     9    3   24 1
    10    3   25 1
    11    4    5 1
    12    4   26 1
    13    4   33 1
    14    5    6 1
    15    5   27 1
    16    5   28 1
    17    6   10 1
    18    6    7 2
    19    7    8 1
    20    7   29 1
    21    8    9 1
    22    9   10 2
    23    9   11 1
    24   11   16 ar
    25   11   12 ar
    26   12   13 ar
    27   12   18 1
    28   13   14 ar
    29   13   30 1
    30   14   15 ar
    31   14   31 1
    32   15   16 ar
    33   15   32 1
    34   16   17 1
@<TRIPOS>MOLECULE
ZINC70842716
   27    28     0     0     0
SMALL
USER_CHARGES

@<TRIPOS>ATOM
      1 C1         -0.0187    1.5258    0.0104 C.3       1 <0>        -0.1778
      2 C2          0.0021   -0.0041    0.0020 C.3       1 <0>         0.1173
      3 H1         -1.0205   -0.3814    0.0098 H         1 <0>         0.1542
      4 C3          0.7309   -0.5033    1.2229 C.2       1 <0>        -0.0097
      5 C4          0.1264   -1.3834    2.0643 C.2       1 <0>        -0.1699
      6 S1          1.4142   -1.6112    3.2843 S.3       1 <0>         0.1126
      7 C5          2.6138   -0.5124    2.5424 C.2       1 <0>         0.1708
      8 N1          1.9524   -0.0932    1.4727 N.2       1 <0>        -0.5048
      9 C6          3.9780   -0.1679    2.9969 C.ar      1 <0>        -0.0044
     10 C7          4.7551    0.7293    2.2625 C.ar      1 <0>        -0.0644
     11 C8          6.0271    1.0481    2.6905 C.ar      1 <0>        -0.0804
     12 C9          6.5346    0.4803    3.8466 C.ar      1 <0>        -0.0499
     13 C10         5.7681   -0.4117    4.5812 C.ar      1 <0>         0.1210
     14 C11         4.4908   -0.7340    4.1644 C.ar      1 <0>        -0.1129
     15 F1          6.2692   -0.9628    5.7084 F         1 <0>        -0.1122
     16 Cl1         8.1365    0.8862    4.3784 Cl        1 <0>        -0.0211
     17 N2          0.6897   -0.4778   -1.2066 N.4       1 <0>        -0.6342
     18 H2          1.0039    1.9031    0.0027 H         1 <0>         0.0902
     19 H3         -0.5459    1.8868   -0.8726 H         1 <0>         0.0871
     20 H4         -0.5289    1.8773    0.9072 H         1 <0>         0.1041
     21 H5         -0.8587   -1.8229    2.0111 H         1 <0>         0.2129
     22 H6          4.3612    1.1730    1.3601 H         1 <0>         0.1510
     23 H7          6.6286    1.7420    2.1221 H         1 <0>         0.1582
     24 H8          3.8922   -1.4254    4.7389 H         1 <0>         0.1510
     25 H9          1.6363   -0.1286   -1.2138 H         1 <0>         0.4380
     26 H10         0.7033   -1.4867   -1.2121 H         1 <0>         0.4350
     27 H11         0.2017   -0.1436   -2.0240 H         1 <0>         0.4381
@<TRIPOS>BOND
     1    1    2 1
     2    1   18 1
     3    1   19 1
     4    1   20 1
     5    2    3 1
     6    2    4 1
     7    2   17 1
     8    4    8 1
     9    4    5 2
    10    5    6 1
    11    5   21 1
    12    6    7 1
    13    7    8 2
    14    7    9 1
    15    9   14 ar
    16    9   10 ar
    17   10   11 ar
    18   10   22 1
    19   11   12 ar
    20   11   23 1
    21   12   13 ar
    22   12   16 1
    23   13   14 ar
    24   13   15 1
    25   14   24 1
    26   17   25 1
    27   17   26 1
    28   17   27 1
@<TRIPOS>MOLECULE
ZINC55266058
   27    28     0     0     0
SMALL
USER_CHARGES

@<TRIPOS>ATOM
      1 C1         -0.0178    1.4648    0.0101 C.3       1 <0>        -0.0468
      2 N1          0.0021   -0.0041    0.0020 N.4       1 <0>        -0.5086
      3 C2          0.6897   -0.4778   -1.2066 C.3       1 <0>         0.0773
      4 C3          0.7101   -1.9847   -1.2149 C.2       1 <0>        -0.0130
      5 C4         -0.2476   -2.6745   -1.8883 C.2       1 <0>        -0.1886
      6 S1          0.2638   -4.3564   -1.5592 S.3       1 <0>         0.1307
      7 C5          1.6940   -3.9581   -0.5628 C.2       1 <0>         0.1677
      8 N2          1.6563   -2.6329   -0.5759 N.2       1 <0>        -0.5020
      9 C6          2.6611   -4.8626    0.0939 C.ar      1 <0>        -0.0831
     10 C7          3.7167   -4.3368    0.8404 C.ar      1 <0>        -0.0076
     11 C8          4.6159   -5.1849    1.4515 C.ar      1 <0>        -0.1629
     12 C9          4.4741   -6.5582    1.3264 C.ar      1 <0>         0.1695
     13 C10         3.4295   -7.0877    0.5870 C.ar      1 <0>        -0.1876
     14 C11         2.5187   -6.2479   -0.0253 C.ar      1 <0>         0.1626
     15 F1          1.4963   -6.7645   -0.7415 F         1 <0>        -0.1150
     16 F2          5.3587   -7.3835    1.9278 F         1 <0>        -0.1145
     17 H1          1.0047    1.8421    0.0024 H         1 <0>         0.1253
     18 H2         -0.5450    1.8259   -0.8730 H         1 <0>         0.1251
     19 H3         -0.5280    1.8163    0.9069 H         1 <0>         0.1278
     20 H4          0.4901   -0.3383    0.8195 H         1 <0>         0.4331
     21 H5          0.1625   -0.1167   -2.0897 H         1 <0>         0.1461
     22 H6          1.7123   -0.1005   -1.2143 H         1 <0>         0.1453
     23 H7         -1.0855   -2.3085   -2.4631 H         1 <0>         0.2109
     24 H8          3.8293   -3.2672    0.9389 H         1 <0>         0.1565
     25 H9          5.4330   -4.7781    2.0289 H         1 <0>         0.1584
     26 H10         3.3240   -8.1583    0.4925 H         1 <0>         0.1649
     27 H11        -0.9445   -0.3533    0.0092 H         1 <0>         0.4286
@<TRIPOS>BOND
     1    1    2 1
     2    1   17 1
     3    1   18 1
     4    1   19 1
     5    2    3 1
     6    2   20 1
     7    2   27 1
     8    3    4 1
     9    3   21 1
    10    3   22 1
    11    4    8 1
    12    4    5 2
    13    5    6 1
    14    5   23 1
    15    6    7 1
    16    7    8 2
    17    7    9 1
    18    9   14 ar
    19    9   10 ar
    20   10   11 ar
    21   10   24 1
    22   11   12 ar
    23   11   25 1
    24   12   13 ar
    25   12   16 1
    26   13   14 ar
    27   13   26 1
    28   14   15 1
@<TRIPOS>MOLECULE
ZINC02548372
   20    21     0     0     0
SMALL
USER_CHARGES

@<TRIPOS>ATOM
      1 C1         -0.0167    1.3788    0.0096 C.ar      1 <0>        -0.1049
      2 C2          1.1670    2.0882    0.0021 C.ar      1 <0>        -0.1007
      3 C3          2.3849    1.4080   -0.0131 C.ar      1 <0>         0.0270
      4 C4          2.3983    0.0129   -0.0207 C.ar      1 <0>        -0.0725
      5 C5          1.2074   -0.6857   -0.0131 C.ar      1 <0>        -0.0322
      6 C6          0.0021   -0.0041    0.0020 C.ar      1 <0>        -0.1086
      7 Cl1         1.2211   -2.4217   -0.0225 Cl        1 <0>        -0.0679
      8 C7          3.6570    2.1629   -0.0217 C.2       1 <0>         0.0610
      9 N1          4.8939    1.7050   -0.0414 N.2       1 <0>        -0.4132
     10 C8          5.8943    2.5770   -0.0455 C.2       1 <0>        -0.0124
     11 C9          5.5979    3.9269   -0.0289 C.2       1 <0>        -0.2122
     12 S1          3.9149    3.9280   -0.0160 S.3       1 <0>         0.0832
     13 C10         7.2889    2.1167   -0.0666 C.2       1 <0>         0.5470
     14 O1          7.5377    0.9184   -0.0812 O.co2     1 <0>        -0.6629
     15 O2          8.2023    2.9315   -0.0698 O.co2     1 <0>        -0.6837
     16 H1         -0.9598    1.9047    0.0260 H         1 <0>         0.1370
     17 H2          1.1506    3.1681    0.0077 H         1 <0>         0.1325
     18 H3          3.3380   -0.5193   -0.0328 H         1 <0>         0.1491
     19 H4         -0.9271   -0.5546    0.0083 H         1 <0>         0.1344
     20 H5          6.2751    4.7683   -0.0288 H         1 <0>         0.2000
@<TRIPOS>BOND
     1    1    6 ar
     2    1    2 ar
     3    1   16 1
     4    2    3 ar
     5    2   17 1
     6    3    4 ar
     7    3    8 1
     8    4    5 ar
     9    4   18 1
    10    5    6 ar
    11    5    7 1
    12    6   19 1
    13    8   12 1
    14    8    9 2
    15    9   10 1
    16   10   11 2
    17   10   13 1
    18   11   12 1
    19   11   20 1
    20   13   14 2
    21   13   15 1
@<TRIPOS>MOLECULE
ZINC88124708
   30    31     0     0     0
SMALL
USER_CHARGES

@<TRIPOS>ATOM
      1 C1          2.0154   -1.9932    2.0105 C.3       1 <0>        -0.1153
      2 C2          0.9783   -1.6823    0.9622 C.ar      1 <0>        -0.0008
      3 C3          1.0388   -2.2946   -0.2723 C.ar      1 <0>        -0.1579
      4 C4          0.0859   -2.0096   -1.2371 C.ar      1 <0>         0.1429
      5 C5         -0.9325   -1.1087   -0.9676 C.ar      1 <0>        -0.1582
      6 C6         -1.0018   -0.4907    0.2631 C.ar      1 <0>        -0.0473
      7 C7         -0.0481   -0.7789    1.2407 C.ar      1 <0>        -0.0602
      8 C8         -0.1213   -0.1243    2.5644 C.2       1 <0>         0.1870
      9 N1         -0.0062   -0.6558    3.7734 N.2       1 <0>        -0.4976
     10 C9         -0.0982    0.0833    4.8542 C.2       1 <0>        -0.0155
     11 C10        -0.3156    1.4205    4.7439 C.2       1 <0>        -0.1793
     12 S1         -0.3811    1.5986    2.9655 S.3       1 <0>         0.0957
     13 C11         0.0365   -0.5497    6.2151 C.3       1 <0>         0.0770
     14 N2         -1.2656   -1.0820    6.6386 N.4       1 <0>        -0.5087
     15 C12        -1.1343   -1.6991    7.9652 C.3       1 <0>        -0.0468
     16 F1          0.1498   -2.6116   -2.4448 F         1 <0>        -0.1243
     17 H1          1.6409   -2.7747    2.6716 H         1 <0>         0.0845
     18 H2          2.9304   -2.3345    1.5264 H         1 <0>         0.0771
     19 H3          2.2250   -1.0953    2.5918 H         1 <0>         0.0667
     20 H4          1.8304   -2.9971   -0.4875 H         1 <0>         0.1497
     21 H5         -1.6727   -0.8901   -1.7231 H         1 <0>         0.1507
     22 H6         -1.7955    0.2114    0.4720 H         1 <0>         0.1407
     23 H7         -0.4170    2.1687    5.5161 H         1 <0>         0.2100
     24 H8          0.7628   -1.3611    6.1682 H         1 <0>         0.1449
     25 H9          0.3736    0.1988    6.9322 H         1 <0>         0.1455
     26 H10        -1.9380   -0.3310    6.6820 H         1 <0>         0.4283
     27 H11        -2.1004   -2.0940    8.2794 H         1 <0>         0.1276
     28 H12        -0.4079   -2.5104    7.9183 H         1 <0>         0.1252
     29 H13        -0.7972   -0.9506    8.6823 H         1 <0>         0.1250
     30 H14        -1.5777   -1.7749    5.9748 H         1 <0>         0.4334
@<TRIPOS>BOND
     1    1    2 1
     2    1   17 1
     3    1   18 1
     4    1   19 1
     5    2    7 ar
     6    2    3 ar
     7    3    4 ar
     8    3   20 1
     9    4    5 ar
    10    4   16 1
    11    5    6 ar
    12    5   21 1
    13    6    7 ar
    14    6   22 1
    15    7    8 1
    16    8   12 1
    17    8    9 2
    18    9   10 1
    19   10   11 2
    20   10   13 1
    21   11   12 1
    22   11   23 1
    23   13   14 1
    24   13   24 1
    25   13   25 1
    26   14   15 1
    27   14   26 1
    28   14   30 1
    29   15   27 1
    30   15   28 1
    31   15   29 1
@<TRIPOS>MOLECULE
ZINC40999827
   35    36     0     0     0
SMALL
USER_CHARGES

@<TRIPOS>ATOM
      1 C1         -0.0555    1.4500    0.0485 C.3       1 <0>        -0.0466
      2 N1         -0.0270   -0.0185    0.0280 N.4       1 <0>        -0.5082
      3 C2          0.6716   -0.4780   -1.1798 C.3       1 <0>         0.0769
      4 C3          0.7008   -1.9845   -1.2009 C.2       1 <0>        -0.0039
      5 C4         -0.2482   -2.6740   -1.8868 C.2       1 <0>        -0.1955
      6 S1          0.2705   -4.3557   -1.5686 S.3       1 <0>         0.0677
      7 C5          1.6916   -3.9580   -0.5589 C.2       1 <0>         0.2126
      8 N2          1.6463   -2.6328   -0.5609 N.2       1 <0>        -0.5262
      9 C6          2.6594   -4.8626    0.0964 C.ar      1 <0>        -0.1153
     10 C7          3.7067   -4.3356    0.8546 C.ar      1 <0>        -0.0055
     11 C8          4.6074   -5.1815    1.4643 C.ar      1 <0>        -0.2052
     12 C9          4.4742   -6.5587    1.3250 C.ar      1 <0>         0.2547
     13 C10         3.4324   -7.0865    0.5700 C.ar      1 <0>        -0.2011
     14 C11         2.5249   -6.2459   -0.0369 C.ar      1 <0>        -0.0265
     15 N3          5.3877   -7.4125    1.9434 N.pl3     1 <0>        -0.6227
     16 C12         6.5562   -6.8597    2.6328 C.3       1 <0>         0.0837
     17 C13         5.1786   -8.8619    1.9035 C.3       1 <0>         0.0783
     18 H1          0.9649    1.8332    0.0511 H         1 <0>         0.1247
     19 H2         -0.5786    1.8157   -0.8351 H         1 <0>         0.1245
     20 H3         -0.5739    1.7909    0.9447 H         1 <0>         0.1269
     21 H4          0.4572   -0.3570    0.8459 H         1 <0>         0.4331
     22 H5          0.1485   -0.1123   -2.0634 H         1 <0>         0.1440
     23 H6          1.6920   -0.0948   -1.1772 H         1 <0>         0.1436
     24 H7         -1.0842   -2.3078   -2.4643 H         1 <0>         0.2063
     25 H8          3.8109   -3.2661    0.9629 H         1 <0>         0.1334
     26 H9          5.4179   -4.7745    2.0506 H         1 <0>         0.1349
     27 H10         3.3319   -8.1565    0.4630 H         1 <0>         0.1385
     28 H11         1.7130   -6.6565   -0.6188 H         1 <0>         0.1275
     29 H12         6.3057   -6.6687    3.6763 H         1 <0>         0.0574
     30 H13         7.3793   -7.5724    2.5813 H         1 <0>         0.0757
     31 H14         6.8530   -5.9267    2.1537 H         1 <0>         0.0732
     32 H15         4.3159   -9.0875    1.2766 H         1 <0>         0.0819
     33 H16         6.0640   -9.3455    1.4908 H         1 <0>         0.0661
     34 H17         5.0003   -9.2313    2.9134 H         1 <0>         0.0628
     35 H18        -0.9716   -0.3732    0.0256 H         1 <0>         0.4282
@<TRIPOS>BOND
     1    1    2 1
     2    1   18 1
     3    1   19 1
     4    1   20 1
     5    2    3 1
     6    2   21 1
     7    2   35 1
     8    3    4 1
     9    3   22 1
    10    3   23 1
    11    4    8 1
    12    4    5 2
    13    5    6 1
    14    5   24 1
    15    6    7 1
    16    7    8 2
    17    7    9 1
    18    9   14 ar
    19    9   10 ar
    20   10   11 ar
    21   10   25 1
    22   11   12 ar
    23   11   26 1
    24   12   13 ar
    25   12   15 1
    26   13   14 ar
    27   13   27 1
    28   14   28 1
    29   15   16 1
    30   15   17 1
    31   16   29 1
    32   16   30 1
    33   16   31 1
    34   17   32 1
    35   17   33 1
    36   17   34 1
@<TRIPOS>MOLECULE
ZINC80801680
   33    35     0     0     0
SMALL
USER_CHARGES

@<TRIPOS>ATOM
      1 C1          0.9888   -4.1565    1.2837 C.3       1 <0>        -0.1774
      2 C2          0.1143   -3.1697    2.0598 C.3       1 <0>         0.1175
      3 H1         -0.8601   -3.0907    1.5778 H         1 <0>         0.1534
      4 C3          0.7775   -1.8165    2.0767 C.2       1 <0>        -0.0119
      5 C4          0.1025   -0.7216    1.6344 C.2       1 <0>        -0.1762
      6 S1          1.3369    0.5490    1.8804 S.3       1 <0>         0.0972
      7 C5          2.6135   -0.5131    2.5433 C.2       1 <0>         0.1880
      8 N1          2.0046   -1.6919    2.5229 N.2       1 <0>        -0.5061
      9 C6          3.9749   -0.1702    2.9966 C.ar      1 <0>        -0.0401
     10 C7          4.7897    0.6385    2.2192 C.ar      1 <0>        -0.0554
     11 C8          6.0726    0.9656    2.6407 C.ar      1 <0>        -0.1247
     12 C9          6.5656    0.5034    3.8240 C.ar      1 <0>        -0.0620
     13 C10         5.7748   -0.3198    4.6440 C.ar      1 <0>        -0.0574
     14 C11         4.4624   -0.6588    4.2342 C.ar      1 <0>        -0.0107
     15 C12         3.6728   -1.4754    5.0553 C.ar      1 <0>        -0.1174
     16 C13         4.1738   -1.9279    6.2387 C.ar      1 <0>        -0.0994
     17 C14         5.4622   -1.5902    6.6468 C.ar      1 <0>        -0.1174
     18 C15         6.2613   -0.8098    5.8685 C.ar      1 <0>        -0.0900
     19 N2         -0.0584   -3.6475    3.4381 N.4       1 <0>        -0.6349
     20 H2          1.9632   -4.2355    1.7657 H         1 <0>         0.0904
     21 H3          0.5091   -5.1353    1.2715 H         1 <0>         0.0861
     22 H4          1.1169   -3.8020    0.2610 H         1 <0>         0.1037
     23 H5         -0.9008   -0.6417    1.2426 H         1 <0>         0.2100
     24 H6          4.4237    1.0177    1.2766 H         1 <0>         0.1327
     25 H7          6.6901    1.5971    2.0192 H         1 <0>         0.1401
     26 H8          7.5659    0.7698    4.1320 H         1 <0>         0.1404
     27 H9          2.6719   -1.7444    4.7516 H         1 <0>         0.1200
     28 H10         3.5632   -2.5569    6.8696 H         1 <0>         0.1248
     29 H11         5.8363   -1.9613    7.5896 H         1 <0>         0.1307
     30 H12         7.2586   -0.5567    6.1967 H         1 <0>         0.1368
     31 H13        -0.5024   -4.5535    3.4268 H         1 <0>         0.4376
     32 H14         0.8436   -3.7206    3.8843 H         1 <0>         0.4373
     33 H15        -0.6351   -2.9967    3.9500 H         1 <0>         0.4345
@<TRIPOS>BOND
     1    1    2 1
     2    1   20 1
     3    1   21 1
     4    1   22 1
     5    2    3 1
     6    2    4 1
     7    2   19 1
     8    4    8 1
     9    4    5 2
    10    5    6 1
    11    5   23 1
    12    6    7 1
    13    7    8 2
    14    7    9 1
    15    9   14 ar
    16    9   10 ar
    17   10   11 ar
    18   10   24 1
    19   11   12 ar
    20   11   25 1
    21   12   13 ar
    22   12   26 1
    23   13   18 ar
    24   13   14 ar
    25   14   15 ar
    26   15   16 ar
    27   15   27 1
    28   16   17 ar
    29   16   28 1
    30   17   18 ar
    31   17   29 1
    32   18   30 1
    33   19   31 1
    34   19   32 1
    35   19   33 1
@<TRIPOS>MOLECULE
ZINC06787285
   37    39     0     0     0
SMALL
USER_CHARGES
1-phenyl-N-[(2-phenylthiazol-4-yl)methyl]methanamine
@<TRIPOS>ATOM
      1 C1          0.3976    6.8072   -5.4341 C.ar      1 <0>        -0.0825
      2 C2         -0.7221    6.5509   -4.6650 C.ar      1 <0>        -0.1147
      3 C3         -0.5799    6.1223   -3.3585 C.ar      1 <0>        -0.0921
      4 C4          0.6821    5.9505   -2.8209 C.ar      1 <0>        -0.1684
      5 C5          1.8017    6.2123   -3.5882 C.ar      1 <0>        -0.0929
      6 C6          1.6595    6.6358   -4.8964 C.ar      1 <0>        -0.1154
      7 C7          0.8371    5.4837   -1.3964 C.3       1 <0>         0.0508
      8 C8          1.0435    3.5240    0.0105 C.3       1 <0>         0.0809
      9 C9          1.0962    2.0180    0.0024 C.2       1 <0>        -0.0074
     10 C10         2.2960    1.3786   -0.0125 C.2       1 <0>        -0.1845
     11 S1          1.7604   -0.3278   -0.0165 S.3       1 <0>         0.0905
     12 C11         0.0021   -0.0041    0.0020 C.2       1 <0>         0.1869
     13 N1         -0.0159    1.3214    0.0093 N.2       1 <0>        -0.5094
     14 C12        -1.1278   -0.9580    0.0073 C.ar      1 <0>        -0.0439
     15 C13        -2.4416   -0.4880    0.0277 C.ar      1 <0>        -0.0635
     16 C14        -3.4913   -1.3833    0.0281 C.ar      1 <0>        -0.1205
     17 C15        -3.2436   -2.7444    0.0185 C.ar      1 <0>        -0.0831
     18 C16        -1.9433   -3.2169    0.0031 C.ar      1 <0>        -0.1149
     19 C17        -0.8847   -2.3321   -0.0023 C.ar      1 <0>        -0.0842
     20 H1          0.2864    7.1416   -6.4550 H         1 <0>         0.1360
     21 H2         -1.7080    6.6851   -5.0850 H         1 <0>         0.1362
     22 H3         -1.4546    5.9221   -2.7576 H         1 <0>         0.1318
     23 H4          2.7876    6.0823   -3.1669 H         1 <0>         0.1315
     24 H5          2.5343    6.8364   -5.4972 H         1 <0>         0.1361
     25 H6         -0.0125    5.8280   -0.8068 H         1 <0>         0.1383
     26 H7          1.7580    5.8909   -0.9789 H         1 <0>         0.1384
     27 H8          0.1953    3.8547    0.6100 H         1 <0>         0.1446
     28 H9          1.9658    3.9176    0.4378 H         1 <0>         0.1454
     29 H10         3.2954    1.7878   -0.0203 H         1 <0>         0.2099
     30 H11        -2.6362    0.5743    0.0393 H         1 <0>         0.1343
     31 H12        -4.5086   -1.0208    0.0398 H         1 <0>         0.1364
     32 H13        -4.0688   -3.4411    0.0227 H         1 <0>         0.1357
     33 H14        -1.7566   -4.2806   -0.0043 H         1 <0>         0.1381
     34 H15         0.1298   -2.7022   -0.0144 H         1 <0>         0.1284
     35 N2          0.8916    4.0098   -1.3740 N.4       1 <0>        -0.5169
     36 H16         1.6912    3.6919   -1.9341 H         1 <0>         0.4293
     37 H17         0.0234    3.6327   -1.7719 H         1 <0>         0.4346
@<TRIPOS>BOND
     1    1    6 ar
     2    1    2 ar
     3    1   20 1
     4    2    3 ar
     5    2   21 1
     6    3    4 ar
     7    3   22 1
     8    4    5 ar
     9    4    7 1
    10    5    6 ar
    11    5   23 1
    12    6   24 1
    13    7   25 1
    14    7   26 1
    15    7   35 1
    16    8    9 1
    17    8   27 1
    18    8   28 1
    19    8   35 1
    20    9   13 1
    21    9   10 2
    22   10   11 1
    23   10   29 1
    24   11   12 1
    25   12   13 2
    26   12   14 1
    27   14   19 ar
    28   14   15 ar
    29   15   16 ar
    30   15   30 1
    31   16   17 ar
    32   16   31 1
    33   17   18 ar
    34   17   32 1
    35   18   19 ar
    36   18   33 1
    37   19   34 1
    38   35   36 1
    39   35   37 1
@<TRIPOS>MOLECULE
ZINC06787285
   49    52     0     0     0
SMALL
USER_CHARGES

@<TRIPOS>ATOM
      1 C1         -0.1868    0.1656    0.6211 C.3       1 <0>         0.0263
      2 O1         -0.1681    0.6805   -0.7118 O.3       1 <0>        -0.3171
      3 C2          0.4613   -0.0697   -1.6541 C.ar      1 <0>         0.1345
      4 C3          1.0437   -1.2793   -1.3043 C.ar      1 <0>        -0.2104
      5 C4          1.6824   -2.0402   -2.2642 C.ar      1 <0>        -0.0448
      6 C5          1.7419   -1.5970   -3.5726 C.ar      1 <0>        -0.1234
      7 C6          1.1626   -0.3917   -3.9237 C.ar      1 <0>        -0.0691
      8 C7          0.5174    0.3700   -2.9687 C.ar      1 <0>        -0.1526
      9 C8          2.4397   -2.4289   -4.6176 C.3       1 <0>         0.2043
     10 H1          2.3843   -1.9237   -5.5818 H         1 <0>         0.0670
     11 C9          3.8856   -2.6168   -4.2293 C.2       1 <0>         0.0338
     12 C10         4.6516   -1.7337   -3.5599 C.2       1 <0>        -0.1874
     13 C11         5.9351   -2.3012   -3.4317 C.2       1 <0>        -0.2018
     14 C12         5.9021   -3.5129   -4.0230 C.2       1 <0>        -0.0160
     15 N1          4.6434   -3.7194   -4.5024 N.pl3     1 <0>        -0.4321
     16 C13         4.1641   -4.9288   -5.1816 C.3       1 <0>         0.1173
     17 C14         3.3733   -4.5283   -6.4299 C.3       1 <0>        -0.1349
     18 C15         1.9111   -4.2996   -6.0619 C.3       1 <0>         0.0447
     19 N2          1.7889   -3.7430   -4.7139 N.3       1 <0>        -0.5278
     20 C16         0.3810   -3.6647   -4.3020 C.3       1 <0>         0.0883
     21 C17        -0.2231   -5.0453   -4.3127 C.ar      1 <0>        -0.0662
     22 C18        -0.8210   -5.5292   -5.4616 C.ar      1 <0>        -0.1119
     23 C19        -1.3753   -6.7953   -5.4723 C.ar      1 <0>        -0.1060
     24 C20        -1.3325   -7.5784   -4.3339 C.ar      1 <0>        -0.1104
     25 C21        -0.7345   -7.0948   -3.1841 C.ar      1 <0>        -0.0337
     26 C22        -0.1744   -5.8295   -3.1759 C.ar      1 <0>        -0.0892
     27 Cl1        -0.6804   -8.0777   -1.7542 Cl        1 <0>        -0.0687
     28 H2         -0.6918   -0.8003    0.6305 H         1 <0>         0.0562
     29 H3          0.8359    0.0444    0.9782 H         1 <0>         0.0570
     30 H4         -0.7188    0.8601    1.2714 H         1 <0>         0.1012
     31 H5          0.9981   -1.6255   -0.2824 H         1 <0>         0.1291
     32 H6          2.1360   -2.9819   -1.9924 H         1 <0>         0.1282
     33 H7          1.2107   -0.0475   -4.9462 H         1 <0>         0.1280
     34 H8          0.0612    1.3094   -3.2444 H         1 <0>         0.1318
     35 H9          4.3395   -0.7684   -3.1896 H         1 <0>         0.1295
     36 H10         6.7887   -1.8486   -2.9491 H         1 <0>         0.1321
     37 H11         6.7307   -4.2010   -4.1028 H         1 <0>         0.1577
     38 H12         5.0154   -5.5445   -5.4722 H         1 <0>         0.0826
     39 H13         3.5194   -5.4932   -4.5079 H         1 <0>         0.0923
     40 H14         3.7906   -3.6107   -6.8445 H         1 <0>         0.0714
     41 H15         3.4401   -5.3238   -7.1721 H         1 <0>         0.0883
     42 H16         1.4665   -3.6066   -6.7761 H         1 <0>         0.0399
     43 H17         1.3780   -5.2493   -6.1067 H         1 <0>         0.0877
     44 H18         0.3193   -3.2489   -3.2963 H         1 <0>         0.1017
     45 H19        -0.1650   -3.0238   -4.9942 H         1 <0>         0.0493
     46 H20        -0.8553   -4.9175   -6.3510 H         1 <0>         0.1257
     47 H21        -1.8422   -7.1728   -6.3700 H         1 <0>         0.1325
     48 H22        -1.7663   -8.5674   -4.3421 H         1 <0>         0.1329
     49 H23         0.2966   -5.4531   -2.2799 H         1 <0>         0.1322
@<TRIPOS>BOND
     1    1    2 1
     2    1   28 1
     3    1   29 1
     4    1   30 1
     5    2    3 1
     6    3    8 ar
     7    3    4 ar
     8    4    5 ar
     9    4   31 1
    10    5    6 ar
    11    5   32 1
    12    6    7 ar
    13    6    9 1
    14    7    8 ar
    15    7   33 1
    16    8   34 1
    17    9   10 1
    18    9   19 1
    19    9   11 1
    20   11   15 1
    21   11   12 2
    22   12   13 1
    23   12   35 1
    24   13   14 2
    25   13   36 1
    26   14   15 1
    27   14   37 1
    28   15   16 1
    29   16   17 1
    30   16   38 1
    31   16   39 1
    32   17   18 1
    33   17   40 1
    34   17   41 1
    35   18   19 1
    36   18   42 1
    37   18   43 1
    38   19   20 1
    39   20   21 1
    40   20   44 1
    41   20   45 1
    42   21   26 ar
    43   21   22 ar
    44   22   23 ar
    45   22   46 1
    46   23   24 ar
    47   23   47 1
    48   24   25 ar
    49   24   48 1
    50   25   26 ar
    51   25   27 1
    52   26   49 1
@<TRIPOS>MOLECULE
ZINC06787285
   50    53     0     0     0
SMALL
USER_CHARGES

@<TRIPOS>ATOM
      1 C1          0.8282   -0.1729   -0.3428 C.3       1 <0>         0.0209
      2 O1         -0.3296    0.4224    0.2465 O.3       1 <0>        -0.3060
      3 C2         -1.4783   -0.3033    0.2188 C.ar      1 <0>         0.1668
      4 C3         -1.4896   -1.5648   -0.3585 C.ar      1 <0>        -0.2029
      5 C4         -2.6584   -2.3006   -0.3849 C.ar      1 <0>        -0.0588
      6 C5         -3.8166   -1.7806    0.1628 C.ar      1 <0>        -0.1842
      7 C6         -3.8081   -0.5235    0.7383 C.ar      1 <0>        -0.0419
      8 C7         -2.6404    0.2138    0.7728 C.ar      1 <0>        -0.1456
      9 C8         -5.0904   -2.5853    0.1321 C.3       1 <0>         0.1786
     10 H1         -5.8848   -2.0282    0.6287 H         1 <0>         0.1468
     11 C9         -5.4826   -2.8536   -1.3005 C.2       1 <0>        -0.0626
     12 C10        -5.2620   -2.0405   -2.3517 C.2       1 <0>        -0.1165
     13 C11        -5.8006   -2.6694   -3.4921 C.2       1 <0>        -0.1954
     14 C12        -6.3269   -3.8460   -3.0943 C.2       1 <0>         0.0302
     15 N1         -6.1272   -3.9696   -1.7529 N.pl3     1 <0>        -0.4569
     16 C13        -6.5186   -5.1089   -0.9150 C.3       1 <0>         0.0833
     17 C14        -7.1897   -4.5835    0.3573 C.3       1 <0>        -0.1584
     18 C15        -6.1348   -4.3221    1.4251 C.3       1 <0>        -0.0194
     19 N2         -4.8801   -3.8635    0.8257 N.4       1 <0>        -0.3868
     20 C16        -3.8723   -3.6860    1.8797 C.3       1 <0>         0.0347
     21 C17        -3.5887   -5.0143    2.5323 C.ar      1 <0>        -0.1432
     22 C18        -4.3321   -5.4203    3.6252 C.ar      1 <0>        -0.0961
     23 C19        -4.0725   -6.6385    4.2243 C.ar      1 <0>        -0.0969
     24 C20        -3.0691   -7.4516    3.7315 C.ar      1 <0>        -0.0785
     25 C21        -2.3250   -7.0461    2.6381 C.ar      1 <0>        -0.0328
     26 C22        -2.5894   -5.8290    2.0350 C.ar      1 <0>        -0.0898
     27 Cl1        -1.0648   -8.0667    2.0186 Cl        1 <0>        -0.0407
     28 H2          1.6732    0.5097   -0.2532 H         1 <0>         0.1112
     29 H3          1.0586   -1.1059    0.1715 H         1 <0>         0.0613
     30 H4          0.6358   -0.3766   -1.3961 H         1 <0>         0.0628
     31 H5         -0.5853   -1.9710   -0.7871 H         1 <0>         0.1412
     32 H6         -2.6677   -3.2827   -0.8342 H         1 <0>         0.1246
     33 H7         -4.7142   -0.1194    1.1651 H         1 <0>         0.1411
     34 H8         -2.6332    1.1939    1.2263 H         1 <0>         0.1459
     35 H9         -4.7644   -1.0824   -2.3253 H         1 <0>         0.1452
     36 H10        -5.7937   -2.2805   -4.4996 H         1 <0>         0.1494
     37 H11        -6.8215   -4.5656   -3.7298 H         1 <0>         0.1752
     38 H12        -7.2181   -5.7409   -1.4621 H         1 <0>         0.1243
     39 H13        -5.6337   -5.6869   -0.6487 H         1 <0>         0.0805
     40 H14        -7.7160   -3.6558    0.1329 H         1 <0>         0.1054
     41 H15        -7.9011   -5.3235    0.7239 H         1 <0>         0.1290
     42 H16        -6.5022   -3.5595    2.1118 H         1 <0>         0.1376
     43 H17        -5.9511   -5.2425    1.9794 H         1 <0>         0.1365
     44 H18        -2.9546   -3.2927    1.4423 H         1 <0>         0.1485
     45 H19        -4.2474   -2.9867    2.6270 H         1 <0>         0.1421
     46 H20        -5.1157   -4.7850    4.0110 H         1 <0>         0.1393
     47 H21        -4.6536   -6.9550    5.0779 H         1 <0>         0.1474
     48 H22        -2.8659   -8.4032    4.2001 H         1 <0>         0.1473
     49 H23        -2.0117   -5.5139    1.1786 H         1 <0>         0.1396
     50 H24        -4.5537   -4.5530    0.1653 H         1 <0>         0.4165
@<TRIPOS>BOND
     1    1    2 1
     2    1   28 1
     3    1   29 1
     4    1   30 1
     5    2    3 1
     6    3    8 ar
     7    3    4 ar
     8    4    5 ar
     9    4   31 1
    10    5    6 ar
    11    5   32 1
    12    6    7 ar
    13    6    9 1
    14    7    8 ar
    15    7   33 1
    16    8   34 1
    17    9   10 1
    18    9   19 1
    19    9   11 1
    20   11   15 1
    21   11   12 2
    22   12   13 1
    23   12   35 1
    24   13   14 2
    25   13   36 1
    26   14   15 1
    27   14   37 1
    28   15   16 1
    29   16   17 1
    30   16   38 1
    31   16   39 1
    32   17   18 1
    33   17   40 1
    34   17   41 1
    35   18   19 1
    36   18   42 1
    37   18   43 1
    38   19   20 1
    39   19   50 1
    40   20   21 1
    41   20   44 1
    42   20   45 1
    43   21   26 ar
    44   21   22 ar
    45   22   23 ar
    46   22   46 1
    47   23   24 ar
    48   23   47 1
    49   24   25 ar
    50   24   48 1
    51   25   26 ar
    52   25   27 1
    53   26   49 1
@<TRIPOS>MOLECULE
ZINC40419371
   39    40     0     0     0
SMALL
USER_CHARGES

@<TRIPOS>ATOM
      1 C1         -0.0187    1.5258    0.0104 C.3       1 <0>        -0.1564
      2 C2          0.0021   -0.0041    0.0020 C.3       1 <0>        -0.1515
      3 C3          0.7421   -0.5109    1.2415 C.3       1 <0>        -0.0103
      4 N1          0.7620   -1.9797    1.2335 N.4       1 <0>        -0.5084
      5 C4          1.4725   -2.4664    2.4236 C.3       1 <0>         0.0782
      6 C5          1.4929   -3.9732    2.4153 C.2       1 <0>        -0.0080
      7 C6          2.5660   -4.6369    1.9087 C.2       1 <0>        -0.1857
      8 S1          2.0511   -6.3320    2.1536 S.3       1 <0>         0.0892
      9 C7          0.4674   -5.9725    2.9017 C.2       1 <0>         0.1903
     10 N2          0.4774   -4.6470    2.9018 N.2       1 <0>        -0.5117
     11 C8         -0.5714   -6.9032    3.3929 C.ar      1 <0>        -0.0511
     12 C9         -1.7532   -6.4065    3.9442 C.ar      1 <0>        -0.0578
     13 C10        -2.7184   -7.2802    4.4007 C.ar      1 <0>        -0.1206
     14 C11        -2.5164   -8.6461    4.3134 C.ar      1 <0>        -0.0407
     15 C12        -1.3467   -9.1450    3.7684 C.ar      1 <0>        -0.1151
     16 C13        -0.3765   -8.2820    3.3021 C.ar      1 <0>        -0.0784
     17 C14        -3.5748   -9.5946    4.8145 C.3       1 <0>        -0.0962
     18 C15        -4.5452   -9.9226    3.6780 C.3       1 <0>        -0.1489
     19 H1          1.0039    1.9031    0.0027 H         1 <0>         0.0674
     20 H2         -0.5459    1.8868   -0.8726 H         1 <0>         0.0776
     21 H3         -0.5289    1.8773    0.9072 H         1 <0>         0.0676
     22 H4         -1.0205   -0.3814    0.0098 H         1 <0>         0.0862
     23 H5          0.5123   -0.3556   -0.8948 H         1 <0>         0.0861
     24 H6          1.7647   -0.1336    1.2338 H         1 <0>         0.1330
     25 H7          0.2319   -0.1594    2.1383 H         1 <0>         0.1331
     26 H8         -0.1846   -2.3290    1.2406 H         1 <0>         0.4310
     27 H9          2.4951   -2.0891    2.4158 H         1 <0>         0.1454
     28 H10         0.9623   -2.1149    3.3204 H         1 <0>         0.1447
     29 H11         3.4767   -4.2482    1.4777 H         1 <0>         0.2096
     30 H12        -1.9118   -5.3405    4.0135 H         1 <0>         0.1343
     31 H13        -3.6336   -6.8971    4.8276 H         1 <0>         0.1355
     32 H14        -1.1949  -10.2123    3.7034 H         1 <0>         0.1372
     33 H15         0.5340   -8.6727    2.8721 H         1 <0>         0.1286
     34 H16        -3.1033  -10.5124    5.1660 H         1 <0>         0.0801
     35 H17        -4.1206   -9.1292    5.6353 H         1 <0>         0.0796
     36 H18        -5.0167   -9.0049    3.3266 H         1 <0>         0.0570
     37 H19        -3.9994  -10.3880    2.8572 H         1 <0>         0.0577
     38 H20        -5.3107  -10.6087    4.0405 H         1 <0>         0.0654
     39 H21         1.2343   -2.3051    0.4033 H         1 <0>         0.4261
@<TRIPOS>BOND
     1    1    2 1
     2    1   19 1
     3    1   20 1
     4    1   21 1
     5    2    3 1
     6    2   22 1
     7    2   23 1
     8    3    4 1
     9    3   24 1
    10    3   25 1
    11    4    5 1
    12    4   26 1
    13    4   39 1
    14    5    6 1
    15    5   27 1
    16    5   28 1
    17    6   10 1
    18    6    7 2
    19    7    8 1
    20    7   29 1
    21    8    9 1
    22    9   10 2
    23    9   11 1
    24   11   16 ar
    25   11   12 ar
    26   12   13 ar
    27   12   30 1
    28   13   14 ar
    29   13   31 1
    30   14   15 ar
    31   14   17 1
    32   15   16 ar
    33   15   32 1
    34   16   33 1
    35   17   18 1
    36   17   34 1
    37   17   35 1
    38   18   36 1
    39   18   37 1
    40   18   38 1
@<TRIPOS>MOLECULE
ZINC40419368
   42    43     0     0     0
SMALL
USER_CHARGES

@<TRIPOS>ATOM
      1 C1         -0.0187    1.5258    0.0104 C.3       1 <0>        -0.1564
      2 C2          0.0021   -0.0041    0.0020 C.3       1 <0>        -0.1515
      3 C3         -1.4333   -0.5336    0.0129 C.3       1 <0>        -0.0102
      4 N1         -1.4134   -2.0025    0.0048 N.4       1 <0>        -0.5084
      5 C4         -2.7915   -2.5110    0.0152 C.3       1 <0>         0.0782
      6 C5         -2.7711   -4.0178    0.0069 C.2       1 <0>        -0.0079
      7 C6         -2.8583   -4.7064    1.1760 C.2       1 <0>        -0.1859
      8 S1         -2.7866   -6.3890    0.5739 S.3       1 <0>         0.0890
      9 C7         -2.6487   -5.9924   -1.1641 C.2       1 <0>         0.1906
     10 N2         -2.6745   -4.6675   -1.1290 N.2       1 <0>        -0.5118
     11 C8         -2.5406   -6.8985   -2.3277 C.ar      1 <0>        -0.0508
     12 C9         -2.4351   -6.3742   -3.6167 C.ar      1 <0>        -0.0578
     13 C10        -2.3346   -7.2250   -4.6981 C.ar      1 <0>        -0.1205
     14 C11        -2.3386   -8.5952   -4.5068 C.ar      1 <0>        -0.0351
     15 C12        -2.4434   -9.1214   -3.2315 C.ar      1 <0>        -0.1122
     16 C13        -2.5378   -8.2814   -2.1411 C.ar      1 <0>        -0.0789
     17 C14        -2.2289   -9.5186   -5.6927 C.3       1 <0>        -0.0657
     18 C15        -0.9797  -10.3898   -5.5469 C.3       1 <0>        -0.1475
     19 C16        -3.4690  -10.4122   -5.7597 C.3       1 <0>        -0.1480
     20 H1          1.0039    1.9031    0.0027 H         1 <0>         0.0776
     21 H2         -0.5459    1.8868   -0.8726 H         1 <0>         0.0676
     22 H3         -0.5289    1.8773    0.9072 H         1 <0>         0.0674
     23 H4          0.5123   -0.3556   -0.8948 H         1 <0>         0.0863
     24 H5          0.5293   -0.3651    0.8851 H         1 <0>         0.0861
     25 H6         -1.9435   -0.1821    0.9097 H         1 <0>         0.1330
     26 H7         -1.9605   -0.1726   -0.8702 H         1 <0>         0.1331
     27 H8         -0.9411   -2.3279   -0.8254 H         1 <0>         0.4310
     28 H9         -3.3017   -2.1594    0.9120 H         1 <0>         0.1454
     29 H10        -3.3187   -2.1499   -0.8678 H         1 <0>         0.1447
     30 H11        -2.9462   -4.3392    2.1878 H         1 <0>         0.2095
     31 H12        -2.4325   -5.3047   -3.7673 H         1 <0>         0.1342
     32 H13        -2.2529   -6.8205   -5.6961 H         1 <0>         0.1353
     33 H14        -2.4463  -10.1919   -3.0889 H         1 <0>         0.1367
     34 H15        -2.6143   -8.6933   -1.1457 H         1 <0>         0.1283
     35 H16        -2.1561   -8.9291   -6.6067 H         1 <0>         0.0843
     36 H17        -1.0526  -10.9793   -4.6329 H         1 <0>         0.0590
     37 H18        -0.9004  -11.0577   -6.4046 H         1 <0>         0.0654
     38 H19        -0.0963   -9.7532   -5.4992 H         1 <0>         0.0575
     39 H20        -4.3590   -9.7915   -5.8636 H         1 <0>         0.0581
     40 H21        -3.3897  -11.0801   -6.6174 H         1 <0>         0.0654
     41 H22        -3.5419  -11.0017   -4.8457 H         1 <0>         0.0591
     42 H23        -0.9254   -2.3367    0.8222 H         1 <0>         0.4261
@<TRIPOS>BOND
     1    1    2 1
     2    1   20 1
     3    1   21 1
     4    1   22 1
     5    2    3 1
     6    2   23 1
     7    2   24 1
     8    3    4 1
     9    3   25 1
    10    3   26 1
    11    4    5 1
    12    4   27 1
    13    4   42 1
    14    5    6 1
    15    5   28 1
    16    5   29 1
    17    6   10 1
    18    6    7 2
    19    7    8 1
    20    7   30 1
    21    8    9 1
    22    9   10 2
    23    9   11 1
    24   11   16 ar
    25   11   12 ar
    26   12   13 ar
    27   12   31 1
    28   13   14 ar
    29   13   32 1
    30   14   15 ar
    31   14   17 1
    32   15   16 ar
    33   15   33 1
    34   16   34 1
    35   17   18 1
    36   17   19 1
    37   17   35 1
    38   18   36 1
    39   18   37 1
    40   18   38 1
    41   19   39 1
    42   19   40 1
    43   19   41 1
@<TRIPOS>MOLECULE
ZINC80801678
   33    35     0     0     0
SMALL
USER_CHARGES

@<TRIPOS>ATOM
      1 C1          0.9886   -4.1566    1.2841 C.3       1 <0>        -0.1749
      2 C2          0.1142   -3.1696    2.0601 C.3       1 <0>         0.1095
      3 H1         -0.0140   -3.5241    3.0829 H         1 <0>         0.1572
      4 C3          0.7774   -1.8165    2.0768 C.2       1 <0>         0.0364
      5 C4          0.1025   -0.7216    1.6343 C.2       1 <0>        -0.2614
      6 S1          1.3370    0.5489    1.8802 S.3       1 <0>         0.1040
      7 C5          2.6135   -0.5131    2.5433 C.2       1 <0>         0.2022
      8 N1          2.0046   -1.6919    2.5230 N.2       1 <0>        -0.4929
      9 C6          3.9749   -0.1702    2.9966 C.ar      1 <0>        -0.0436
     10 C7          4.7897    0.6385    2.2192 C.ar      1 <0>        -0.0550
     11 C8          6.0726    0.9656    2.6407 C.ar      1 <0>        -0.1279
     12 C9          6.5656    0.5034    3.8239 C.ar      1 <0>        -0.0589
     13 C10         5.7748   -0.3198    4.6440 C.ar      1 <0>        -0.0580
     14 C11         4.4624   -0.6588    4.2342 C.ar      1 <0>        -0.0102
     15 C12         3.6728   -1.4754    5.0553 C.ar      1 <0>        -0.1150
     16 C13         4.1738   -1.9279    6.2387 C.ar      1 <0>        -0.0973
     17 C14         5.4622   -1.5902    6.6468 C.ar      1 <0>        -0.1143
     18 C15         6.2613   -0.8098    5.8685 C.ar      1 <0>        -0.0939
     19 N2         -1.1990   -3.0633    1.4105 N.4       1 <0>        -0.6349
     20 H2          1.9631   -4.2355    1.7662 H         1 <0>         0.1155
     21 H3          0.5089   -5.1353    1.2721 H         1 <0>         0.0878
     22 H4          1.1169   -3.8022    0.2614 H         1 <0>         0.0805
     23 H5         -0.9007   -0.6417    1.2425 H         1 <0>         0.1975
     24 H6          4.4237    1.0177    1.2766 H         1 <0>         0.1319
     25 H7          6.6901    1.5971    2.0192 H         1 <0>         0.1398
     26 H8          7.5659    0.7698    4.1320 H         1 <0>         0.1403
     27 H9          2.6719   -1.7444    4.7516 H         1 <0>         0.1263
     28 H10         3.5632   -2.5569    6.8696 H         1 <0>         0.1267
     29 H11         5.8363   -1.9613    7.5896 H         1 <0>         0.1308
     30 H12         7.2586   -0.5567    6.1967 H         1 <0>         0.1365
     31 H13        -1.7757   -2.4124    1.9222 H         1 <0>         0.4366
     32 H14        -1.0803   -2.7352    0.4637 H         1 <0>         0.4350
     33 H15        -1.6431   -3.9693    1.3993 H         1 <0>         0.4438
@<TRIPOS>BOND
     1    1    2 1
     2    1   20 1
     3    1   21 1
     4    1   22 1
     5    2    3 1
     6    2    4 1
     7    2   19 1
     8    4    8 1
     9    4    5 2
    10    5    6 1
    11    5   23 1
    12    6    7 1
    13    7    8 2
    14    7    9 1
    15    9   14 ar
    16    9   10 ar
    17   10   11 ar
    18   10   24 1
    19   11   12 ar
    20   11   25 1
    21   12   13 ar
    22   12   26 1
    23   13   18 ar
    24   13   14 ar
    25   14   15 ar
    26   15   16 ar
    27   15   27 1
    28   16   17 ar
    29   16   28 1
    30   17   18 ar
    31   17   29 1
    32   18   30 1
    33   19   31 1
    34   19   32 1
    35   19   33 1
@<TRIPOS>MOLECULE
ZINC41010077
   45    46     0     0     0
SMALL
USER_CHARGES

@<TRIPOS>ATOM
      1 C1         -0.0187    1.5258    0.0104 C.3       1 <0>        -0.1564
      2 C2          0.0021   -0.0041    0.0020 C.3       1 <0>        -0.1515
      3 C3         -1.4333   -0.5336    0.0129 C.3       1 <0>        -0.0102
      4 N1         -1.4134   -2.0025    0.0048 N.4       1 <0>        -0.5084
      5 C4         -2.7915   -2.5110    0.0152 C.3       1 <0>         0.0782
      6 C5         -2.7711   -4.0178    0.0069 C.2       1 <0>        -0.0078
      7 C6         -2.8583   -4.7064    1.1760 C.2       1 <0>        -0.1862
      8 S1         -2.7866   -6.3890    0.5739 S.3       1 <0>         0.0884
      9 C7         -2.6487   -5.9924   -1.1641 C.2       1 <0>         0.1911
     10 N2         -2.6745   -4.6675   -1.1290 N.2       1 <0>        -0.5120
     11 C8         -2.5406   -6.8985   -2.3277 C.ar      1 <0>        -0.0512
     12 C9         -2.4351   -6.3742   -3.6167 C.ar      1 <0>        -0.0583
     13 C10        -2.3346   -7.2250   -4.6981 C.ar      1 <0>        -0.1182
     14 C11        -2.3386   -8.5952   -4.5068 C.ar      1 <0>        -0.0288
     15 C12        -2.4434   -9.1214   -3.2315 C.ar      1 <0>        -0.1187
     16 C13        -2.5378   -8.2814   -2.1411 C.ar      1 <0>        -0.0786
     17 C14        -2.2289   -9.5186   -5.6927 C.3       1 <0>        -0.0372
     18 C15        -0.9146   -9.2499   -6.4284 C.3       1 <0>        -0.1412
     19 C16        -2.2569  -10.9710   -5.2125 C.3       1 <0>        -0.1499
     20 C17        -3.4039   -9.2723   -6.6412 C.3       1 <0>        -0.1418
     21 H1          1.0039    1.9031    0.0027 H         1 <0>         0.0776
     22 H2         -0.5459    1.8868   -0.8726 H         1 <0>         0.0676
     23 H3         -0.5289    1.8773    0.9072 H         1 <0>         0.0674
     24 H4          0.5123   -0.3556   -0.8948 H         1 <0>         0.0862
     25 H5          0.5293   -0.3651    0.8851 H         1 <0>         0.0861
     26 H6         -1.9435   -0.1821    0.9097 H         1 <0>         0.1330
     27 H7         -1.9605   -0.1726   -0.8702 H         1 <0>         0.1331
     28 H8         -0.9411   -2.3279   -0.8254 H         1 <0>         0.4310
     29 H9         -3.3017   -2.1594    0.9120 H         1 <0>         0.1453
     30 H10        -3.3187   -2.1499   -0.8678 H         1 <0>         0.1446
     31 H11        -2.9462   -4.3392    2.1878 H         1 <0>         0.2094
     32 H12        -2.4325   -5.3047   -3.7673 H         1 <0>         0.1338
     33 H13        -2.2529   -6.8205   -5.6961 H         1 <0>         0.1347
     34 H14        -2.4463  -10.1919   -3.0889 H         1 <0>         0.1417
     35 H15        -2.6143   -8.6933   -1.1457 H         1 <0>         0.1280
     36 H16        -0.0775   -9.4254   -5.7527 H         1 <0>         0.0583
     37 H17        -0.8353   -9.9178   -7.2862 H         1 <0>         0.0657
     38 H18        -0.8947   -8.2152   -6.7705 H         1 <0>         0.0584
     39 H19        -3.1933  -11.1624   -4.6884 H         1 <0>         0.0613
     40 H20        -2.1776  -11.6389   -6.0703 H         1 <0>         0.0654
     41 H21        -1.4199  -11.1464   -4.5368 H         1 <0>         0.0610
     42 H22        -3.3840   -8.2375   -6.9833 H         1 <0>         0.0586
     43 H23        -3.3246   -9.9401   -7.4990 H         1 <0>         0.0657
     44 H24        -4.3403   -9.4637   -6.1171 H         1 <0>         0.0588
     45 H25        -0.9254   -2.3367    0.8222 H         1 <0>         0.4261
@<TRIPOS>BOND
     1    1    2 1
     2    1   21 1
     3    1   22 1
     4    1   23 1
     5    2    3 1
     6    2   24 1
     7    2   25 1
     8    3    4 1
     9    3   26 1
    10    3   27 1
    11    4    5 1
    12    4   28 1
    13    4   45 1
    14    5    6 1
    15    5   29 1
    16    5   30 1
    17    6   10 1
    18    6    7 2
    19    7    8 1
    20    7   31 1
    21    8    9 1
    22    9   10 2
    23    9   11 1
    24   11   16 ar
    25   11   12 ar
    26   12   13 ar
    27   12   32 1
    28   13   14 ar
    29   13   33 1
    30   14   15 ar
    31   14   17 1
    32   15   16 ar
    33   15   34 1
    34   16   35 1
    35   17   18 1
    36   17   19 1
    37   17   20 1
    38   18   36 1
    39   18   37 1
    40   18   38 1
    41   19   39 1
    42   19   40 1
    43   19   41 1
    44   20   42 1
    45   20   43 1
    46   20   44 1
@<TRIPOS>MOLECULE
ZINC41010059
   39    41     0     0     0
SMALL
USER_CHARGES

@<TRIPOS>ATOM
      1 C1         -0.0187    1.5258    0.0104 C.3       1 <0>        -0.1564
      2 C2          0.0021   -0.0041    0.0020 C.3       1 <0>        -0.1516
      3 C3         -1.4333   -0.5336    0.0129 C.3       1 <0>        -0.0102
      4 N1         -1.4134   -2.0025    0.0048 N.4       1 <0>        -0.5084
      5 C4         -2.7915   -2.5110    0.0152 C.3       1 <0>         0.0782
      6 C5         -2.7711   -4.0178    0.0069 C.2       1 <0>        -0.0079
      7 C6         -2.8583   -4.7065    1.1761 C.2       1 <0>        -0.1844
      8 S1         -2.7866   -6.3891    0.5741 S.3       1 <0>         0.0891
      9 C7         -2.6487   -5.9926   -1.1640 C.2       1 <0>         0.1874
     10 N2         -2.6745   -4.6675   -1.1289 N.2       1 <0>        -0.5088
     11 C8         -2.5406   -6.8984   -2.3270 C.ar      1 <0>        -0.0383
     12 C9         -2.4347   -6.3611   -3.6223 C.ar      1 <0>        -0.0805
     13 C10        -2.3342   -7.1720   -4.7062 C.ar      1 <0>        -0.0967
     14 C11        -2.3352   -8.5693   -4.5422 C.ar      1 <0>        -0.0307
     15 C12        -2.2322   -9.4289   -5.6487 C.ar      1 <0>        -0.1121
     16 C13        -2.2354  -10.7769   -5.4587 C.ar      1 <0>        -0.0955
     17 C14        -2.3400  -11.3216   -4.1802 C.ar      1 <0>        -0.1085
     18 C15        -2.4414  -10.5209   -3.0844 C.ar      1 <0>        -0.1004
     19 C16        -2.4410   -9.1232   -3.2412 C.ar      1 <0>        -0.0577
     20 C17        -2.5387   -8.2690   -2.1323 C.ar      1 <0>        -0.0530
     21 H1          1.0039    1.9031    0.0027 H         1 <0>         0.0776
     22 H2         -0.5459    1.8868   -0.8726 H         1 <0>         0.0676
     23 H3         -0.5289    1.8773    0.9072 H         1 <0>         0.0674
     24 H4          0.5123   -0.3556   -0.8948 H         1 <0>         0.0863
     25 H5          0.5293   -0.3651    0.8851 H         1 <0>         0.0861
     26 H6         -1.9435   -0.1821    0.9097 H         1 <0>         0.1330
     27 H7         -1.9605   -0.1726   -0.8702 H         1 <0>         0.1332
     28 H8         -0.9411   -2.3279   -0.8254 H         1 <0>         0.4312
     29 H9         -3.3017   -2.1594    0.9120 H         1 <0>         0.1455
     30 H10        -3.3187   -2.1499   -0.8678 H         1 <0>         0.1449
     31 H11        -2.9462   -4.3392    2.1879 H         1 <0>         0.2100
     32 H12        -2.4337   -5.2894   -3.7564 H         1 <0>         0.1340
     33 H13        -2.2539   -6.7444   -5.6947 H         1 <0>         0.1390
     34 H14        -2.1512   -9.0220   -6.6458 H         1 <0>         0.1347
     35 H15        -2.1561  -11.4344   -6.3119 H         1 <0>         0.1317
     36 H16        -2.3409  -12.3945   -4.0572 H         1 <0>         0.1318
     37 H17        -2.5222  -10.9566   -2.0995 H         1 <0>         0.1332
     38 H18        -2.6161   -8.6775   -1.1356 H         1 <0>         0.1334
     39 H19        -0.9254   -2.3367    0.8222 H         1 <0>         0.4261
@<TRIPOS>BOND
     1    1    2 1
     2    1   21 1
     3    1   22 1
     4    1   23 1
     5    2    3 1
     6    2   24 1
     7    2   25 1
     8    3    4 1
     9    3   26 1
    10    3   27 1
    11    4    5 1
    12    4   28 1
    13    4   39 1
    14    5    6 1
    15    5   29 1
    16    5   30 1
    17    6   10 1
    18    6    7 2
    19    7    8 1
    20    7   31 1
    21    8    9 1
    22    9   10 2
    23    9   11 1
    24   11   20 ar
    25   11   12 ar
    26   12   13 ar
    27   12   32 1
    28   13   14 ar
    29   13   33 1
    30   14   19 ar
    31   14   15 ar
    32   15   16 ar
    33   15   34 1
    34   16   17 ar
    35   16   35 1
    36   17   18 ar
    37   17   36 1
    38   18   19 ar
    39   18   37 1
    40   19   20 ar
    41   20   38 1
@<TRIPOS>MOLECULE
ZINC20438871
   28    29     0     0     0
SMALL
USER_CHARGES
[2-(3-methoxyphenyl)thiazol-4-yl]methanamine
@<TRIPOS>ATOM
      1 C1          2.3077   -0.3099   -0.0198 C.3       1 <0>         0.0194
      2 O1          2.3664    1.1178   -0.0136 O.3       1 <0>        -0.3118
      3 C2          1.1818    1.7840    0.0004 C.ar      1 <0>         0.1362
      4 C3         -0.0126    1.0758    0.0080 C.ar      1 <0>        -0.1754
      5 C4         -1.2204    1.7482    0.0173 C.ar      1 <0>        -0.0779
      6 C5         -1.2467    3.1281    0.0298 C.ar      1 <0>        -0.1021
      7 C6         -0.0514    3.8482    0.0223 C.ar      1 <0>        -0.0023
      8 C7          1.1666    3.1684    0.0075 C.ar      1 <0>        -0.1227
      9 C8         -0.0759    5.3267    0.0295 C.2       1 <0>         0.1833
     10 N1         -1.1140    6.1509    0.0433 N.2       1 <0>        -0.5061
     11 C9         -0.9504    7.4529    0.0478 C.2       1 <0>        -0.0097
     12 C10         0.3037    7.9781    0.0383 C.2       1 <0>        -0.1865
     13 S1          1.2869    6.4842    0.0298 S.3       1 <0>         0.0981
     14 C11        -2.1504    8.3643    0.0631 C.3       1 <0>         0.0845
     15 N2         -2.6263    8.5703   -1.3114 N.4       1 <0>        -0.6838
     16 H1          3.3288   -0.7188   -0.0311 H         1 <0>         0.1101
     17 H2          1.7663   -0.6507   -0.9146 H         1 <0>         0.0618
     18 H3          1.7828   -0.6592    0.8816 H         1 <0>         0.0621
     19 H4          0.0021   -0.0041    0.0020 H         1 <0>         0.1407
     20 H5         -2.1461    1.1920    0.0191 H         1 <0>         0.1399
     21 H6         -2.1920    3.6503    0.0413 H         1 <0>         0.1365
     22 H7          2.0949    3.7204    0.0012 H         1 <0>         0.1366
     23 H8          0.6187    9.0111    0.0402 H         1 <0>         0.2095
     24 H9         -2.9506    7.9069    0.6635 H         1 <0>         0.1420
     25 H10        -1.8698    9.3327    0.5030 H         1 <0>         0.1426
     26 H11        -3.5022    9.2356   -1.3003 H         1 <0>         0.4612
     27 H12        -2.9069    7.6019   -1.7513 H         1 <0>         0.4597
     28 H13        -1.8261    9.0277   -1.9118 H         1 <0>         0.4540
@<TRIPOS>BOND
     1    1    2 1
     2    1   16 1
     3    1   17 1
     4    1   18 1
     5    2    3 1
     6    3    8 ar
     7    3    4 ar
     8    4    5 ar
     9    4   19 1
    10    5    6 ar
    11    5   20 1
    12    6    7 ar
    13    6   21 1
    14    7    8 ar
    15    7    9 1
    16    8   22 1
    17    9   13 1
    18    9   10 2
    19   10   11 1
    20   11   12 2
    21   11   14 1
    22   12   13 1
    23   12   23 1
    24   14   15 1
    25   14   24 1
    26   14   25 1
    27   15   26 1
    28   15   27 1
    29   15   28 1
@<TRIPOS>MOLECULE
ZINC43315083
   33    34     0     0     0
SMALL
USER_CHARGES

@<TRIPOS>ATOM
      1 C1         -0.0137    1.5024    0.0454 C.3       1 <0>        -0.1211
      2 C2          0.0048   -0.0042    0.0188 C.ar      1 <0>        -0.0846
      3 C3         -0.1301   -0.6752   -1.1838 C.ar      1 <0>        -0.0832
      4 C4         -0.1141   -2.0580   -1.2168 C.ar      1 <0>        -0.1155
      5 C5          0.0367   -2.7773   -0.0490 C.ar      1 <0>        -0.0843
      6 C6          0.1737   -2.1068    1.1670 C.ar      1 <0>        -0.0420
      7 C7          0.1620   -0.7114    1.1927 C.ar      1 <0>        -0.0372
      8 C8          0.3151    0.0211    2.5008 C.3       1 <0>        -0.1126
      9 C9          0.3352   -2.8713    2.4224 C.2       1 <0>         0.1913
     10 N1         -0.2773   -2.7146    3.5875 N.2       1 <0>        -0.4994
     11 C10        -0.0085   -3.4935    4.6088 C.2       1 <0>        -0.0152
     12 C11         0.9144   -4.4837    4.4812 C.2       1 <0>        -0.1821
     13 S1          1.4035   -4.2610    2.7754 S.3       1 <0>         0.0906
     14 C12        -0.7211   -3.2904    5.9210 C.3       1 <0>         0.0770
     15 N2         -0.0236   -2.2608    6.7028 N.4       1 <0>        -0.5087
     16 C13        -0.7182   -2.0628    7.9820 C.3       1 <0>        -0.0469
     17 H1          1.0014    1.8805   -0.0758 H         1 <0>         0.0771
     18 H2         -0.6387    1.8725   -0.7674 H         1 <0>         0.0745
     19 H3         -0.4173    1.8440    0.9985 H         1 <0>         0.0710
     20 H4         -0.2488   -0.1168   -2.1007 H         1 <0>         0.1351
     21 H5         -0.2202   -2.5758   -2.1587 H         1 <0>         0.1377
     22 H6          0.0484   -3.8569   -0.0760 H         1 <0>         0.1296
     23 H7         -0.6694    0.2087    2.9295 H         1 <0>         0.0785
     24 H8          0.9020   -0.5856    3.1904 H         1 <0>         0.0570
     25 H9          0.8232    0.9699    2.3287 H         1 <0>         0.0751
     26 H10         1.2547   -5.2070    5.2074 H         1 <0>         0.2093
     27 H11        -1.7460   -2.9711    5.7323 H         1 <0>         0.1448
     28 H12        -0.7291   -4.2268    6.4788 H         1 <0>         0.1454
     29 H13         0.9252   -2.5563    6.8776 H         1 <0>         0.4283
     30 H14        -1.7432   -1.7435    7.7932 H         1 <0>         0.1252
     31 H15        -0.7263   -2.9992    8.5398 H         1 <0>         0.1251
     32 H16        -0.2006   -1.2988    8.5621 H         1 <0>         0.1277
     33 H17        -0.0161   -1.3939    6.1865 H         1 <0>         0.4324
@<TRIPOS>BOND
     1    1    2 1
     2    1   17 1
     3    1   18 1
     4    1   19 1
     5    2    7 ar
     6    2    3 ar
     7    3    4 ar
     8    3   20 1
     9    4    5 ar
    10    4   21 1
    11    5    6 ar
    12    5   22 1
    13    6    7 ar
    14    6    9 1
    15    7    8 1
    16    8   23 1
    17    8   24 1
    18    8   25 1
    19    9   13 1
    20    9   10 2
    21   10   11 1
    22   11   12 2
    23   11   14 1
    24   12   13 1
    25   12   26 1
    26   14   15 1
    27   14   27 1
    28   14   28 1
    29   15   16 1
    30   15   29 1
    31   15   33 1
    32   16   30 1
    33   16   31 1
    34   16   32 1
@<TRIPOS>MOLECULE
ZINC00352025
   28    30     0     0     0
SMALL
USER_CHARGES
2-(4-chlorophenyl)-4-phenyl-thiazole
@<TRIPOS>ATOM
      1 C1         -8.7425    2.1753    0.0555 C.ar      1 <0>        -0.1119
      2 C2         -7.6669    3.0451    0.0552 C.ar      1 <0>        -0.1223
      3 C3         -6.3778    2.5524    0.0468 C.ar      1 <0>        -0.0855
      4 C4         -6.1608    1.1757    0.0392 C.ar      1 <0>        -0.0301
      5 C5         -7.2483    0.3042    0.0346 C.ar      1 <0>        -0.1045
      6 C6         -8.5331    0.8080    0.0484 C.ar      1 <0>        -0.1201
      7 C7         -4.7774    0.6401    0.0297 C.2       1 <0>         0.1018
      8 C8         -4.5597   -0.7132    0.0221 C.2       1 <0>        -0.1913
      9 S1         -2.7722   -0.7609    0.0128 S.3       1 <0>         0.0294
     10 C9         -2.5027    1.0062    0.0199 C.2       1 <0>         0.1559
     11 N1         -3.7449    1.4622    0.0337 N.2       1 <0>        -0.4866
     12 C10        -1.2297    1.7585    0.0174 C.ar      1 <0>        -0.0135
     13 C11        -0.0126    1.0758    0.0080 C.ar      1 <0>        -0.0786
     14 C12         1.1717    1.7830    0.0004 C.ar      1 <0>        -0.1073
     15 C13         1.1544    3.1677    0.0071 C.ar      1 <0>        -0.0176
     16 C14        -0.0502    3.8505    0.0213 C.ar      1 <0>        -0.1098
     17 C15        -1.2408    3.1540    0.0289 C.ar      1 <0>        -0.0571
     18 Cl1         2.6489    4.0510   -0.0030 Cl        1 <0>        -0.0584
     19 H1         -9.7497    2.5653    0.0617 H         1 <0>         0.1245
     20 H2         -7.8362    4.1117    0.0611 H         1 <0>         0.1259
     21 H3         -5.5387    3.2323    0.0466 H         1 <0>         0.1319
     22 H4         -7.0859   -0.7635    0.0246 H         1 <0>         0.1241
     23 H5         -9.3766    0.1335    0.0490 H         1 <0>         0.1268
     24 H6         -5.2711   -1.5259    0.0224 H         1 <0>         0.2028
     25 H7          0.0021   -0.0041    0.0020 H         1 <0>         0.1376
     26 H8          2.1142    1.2559   -0.0110 H         1 <0>         0.1440
     27 H9         -0.0575    4.9304    0.0261 H         1 <0>         0.1437
     28 H10        -2.1797    3.6876    0.0397 H         1 <0>         0.1459
@<TRIPOS>BOND
     1    1    6 ar
     2    1    2 ar
     3    1   19 1
     4    2    3 ar
     5    2   20 1
     6    3    4 ar
     7    3   21 1
     8    4    5 ar
     9    4    7 1
    10    5    6 ar
    11    5   22 1
    12    6   23 1
    13    7   11 1
    14    7    8 2
    15    8    9 1
    16    8   24 1
    17    9   10 1
    18   10   11 2
    19   10   12 1
    20   12   17 ar
    21   12   13 ar
    22   13   14 ar
    23   13   25 1
    24   14   15 ar
    25   14   26 1
    26   15   16 ar
    27   15   18 1
    28   16   17 ar
    29   16   27 1
    30   17   28 1
@<TRIPOS>MOLECULE
ZINC00144793
   28    30     0     0     0
SMALL
USER_CHARGES
2,4-bis(4-chlorophenyl)thiazole
@<TRIPOS>ATOM
      1 C1          7.2411    0.5009   -0.0545 C.ar      1 <0>        -0.0924
      2 C2          8.5118    1.0389   -0.0680 C.ar      1 <0>        -0.1093
      3 C3          8.6845    2.4125   -0.0631 C.ar      1 <0>        -0.0287
      4 C4          7.5847    3.2531   -0.0494 C.ar      1 <0>        -0.1115
      5 C5          6.3098    2.7250   -0.0407 C.ar      1 <0>        -0.0732
      6 C6          6.1306    1.3429   -0.0461 C.ar      1 <0>        -0.0230
      7 C7          4.7622    0.7698   -0.0368 C.2       1 <0>         0.0992
      8 C8          4.5813   -0.5889   -0.0420 C.2       1 <0>        -0.1892
      9 S1          2.7958   -0.6852   -0.0266 S.3       1 <0>         0.0358
     10 C9          2.4784    1.0739   -0.0148 C.2       1 <0>         0.1580
     11 N1          3.7079    1.5636   -0.0292 N.2       1 <0>        -0.4874
     12 C10         1.1856    1.7914    0.0004 C.ar      1 <0>        -0.0149
     13 C11        -0.0126    1.0758    0.0080 C.ar      1 <0>        -0.0781
     14 C12        -1.2156    1.7506    0.0173 C.ar      1 <0>        -0.1074
     15 C13        -1.2359    3.1351    0.0293 C.ar      1 <0>        -0.0169
     16 C14        -0.0502    3.8505    0.0223 C.ar      1 <0>        -0.1098
     17 C15         1.1588    3.1867    0.0076 C.ar      1 <0>        -0.0565
     18 Cl1        -2.7537    3.9774    0.0471 Cl        1 <0>        -0.0577
     19 Cl2        10.2858    3.0830   -0.0734 Cl        1 <0>        -0.0659
     20 H1          7.1074   -0.5708   -0.0538 H         1 <0>         0.1346
     21 H2          9.3730    0.3873   -0.0783 H         1 <0>         0.1386
     22 H3          7.7246    4.3240   -0.0452 H         1 <0>         0.1376
     23 H4          5.4524    3.3816   -0.0293 H         1 <0>         0.1422
     24 H5          5.3144   -1.3819   -0.0529 H         1 <0>         0.2039
     25 H6          0.0021   -0.0041    0.0020 H         1 <0>         0.1377
     26 H7         -2.1435    1.1979    0.0190 H         1 <0>         0.1442
     27 H8         -0.0722    4.9302    0.0279 H         1 <0>         0.1439
     28 H9          2.0829    3.7456    0.0014 H         1 <0>         0.1461
@<TRIPOS>BOND
     1    1    6 ar
     2    1    2 ar
     3    1   20 1
     4    2    3 ar
     5    2   21 1
     6    3    4 ar
     7    3   19 1
     8    4    5 ar
     9    4   22 1
    10    5    6 ar
    11    5   23 1
    12    6    7 1
    13    7   11 1
    14    7    8 2
    15    8    9 1
    16    8   24 1
    17    9   10 1
    18   10   11 2
    19   10   12 1
    20   12   17 ar
    21   12   13 ar
    22   13   14 ar
    23   13   25 1
    24   14   15 ar
    25   14   26 1
    26   15   16 ar
    27   15   18 1
    28   16   17 ar
    29   16   27 1
    30   17   28 1
@<TRIPOS>MOLECULE
ZINC40420001
   33    34     0     0     0
SMALL
USER_CHARGES

@<TRIPOS>ATOM
      1 C1         -0.0187    1.5258    0.0104 C.3       1 <0>        -0.1843
      2 C2          0.0021   -0.0041    0.0020 C.3       1 <0>         0.0244
      3 C3          0.7421   -0.5109    1.2415 C.3       1 <0>        -0.1855
      4 N1         -1.3761   -0.5125    0.0124 N.4       1 <0>        -0.5068
      5 C4         -1.3591   -1.9758   -0.1163 C.3       1 <0>         0.0743
      6 C5         -2.7729   -2.4974   -0.1056 C.2       1 <0>        -0.0091
      7 C6         -3.4212   -2.7316   -1.2775 C.2       1 <0>        -0.1795
      8 S1         -4.9988   -3.3161   -0.6707 S.3       1 <0>         0.1026
      9 C7         -4.6235   -3.1850    1.0726 C.2       1 <0>         0.1772
     10 N2         -3.3785   -2.7315    1.0348 N.2       1 <0>        -0.5017
     11 C8         -5.4717   -3.5022    2.2416 C.ar      1 <0>        -0.0103
     12 C9         -4.9792   -3.3194    3.5347 C.ar      1 <0>        -0.0756
     13 C10        -5.7745   -3.6168    4.6220 C.ar      1 <0>        -0.0879
     14 C11        -7.0587   -4.0956    4.4340 C.ar      1 <0>        -0.1202
     15 C12        -7.5547   -4.2796    3.1534 C.ar      1 <0>         0.1101
     16 C13        -6.7692   -3.9797    2.0563 C.ar      1 <0>        -0.1249
     17 F1         -8.8095   -4.7480    2.9769 F         1 <0>        -0.1260
     18 H1          1.0039    1.9031    0.0027 H         1 <0>         0.1079
     19 H2         -0.5459    1.8868   -0.8726 H         1 <0>         0.0815
     20 H3         -0.5289    1.8773    0.9072 H         1 <0>         0.0815
     21 H4          0.5123   -0.3556   -0.8948 H         1 <0>         0.1404
     22 H5          0.2319   -0.1594    2.1383 H         1 <0>         0.0825
     23 H6          0.7568   -1.6008    1.2356 H         1 <0>         0.0818
     24 H7          1.7647   -0.1336    1.2338 H         1 <0>         0.1067
     25 H8         -1.8225   -0.2564    0.8803 H         1 <0>         0.4291
     26 H9         -0.8769   -2.2525   -1.0538 H         1 <0>         0.1459
     27 H10        -0.8062   -2.4075    0.7180 H         1 <0>         0.1467
     28 H11        -3.0787   -2.6006   -2.2933 H         1 <0>         0.2116
     29 H12        -3.9769   -2.9461    3.6839 H         1 <0>         0.1422
     30 H13        -5.3934   -3.4758    5.6227 H         1 <0>         0.1481
     31 H14        -7.6769   -4.3271    5.2887 H         1 <0>         0.1493
     32 H15        -7.1575   -4.1190    1.0582 H         1 <0>         0.1414
     33 H16        -1.8879   -0.1129   -0.7598 H         1 <0>         0.4261
@<TRIPOS>BOND
     1    1    2 1
     2    1   18 1
     3    1   19 1
     4    1   20 1
     5    2    3 1
     6    2    4 1
     7    2   21 1
     8    3   22 1
     9    3   23 1
    10    3   24 1
    11    4    5 1
    12    4   25 1
    13    4   33 1
    14    5    6 1
    15    5   26 1
    16    5   27 1
    17    6   10 1
    18    6    7 2
    19    7    8 1
    20    7   28 1
    21    8    9 1
    22    9   10 2
    23    9   11 1
    24   11   16 ar
    25   11   12 ar
    26   12   13 ar
    27   12   29 1
    28   13   14 ar
    29   13   30 1
    30   14   15 ar
    31   14   31 1
    32   15   16 ar
    33   15   17 1
    34   16   32 1
@<TRIPOS>MOLECULE
ZINC06341451
   27    28     0     0     0
SMALL
USER_CHARGES
2-(2-phenylthiazol-4-yl)ethanamine
@<TRIPOS>ATOM
      1 C1          2.3776    1.4189   -0.0135 C.ar      1 <0>        -0.0880
      2 C2          1.1702    2.0943    0.0021 C.ar      1 <0>        -0.1145
      3 C3         -0.0168    1.3913    0.0097 C.ar      1 <0>        -0.0865
      4 C4          0.0021   -0.0041    0.0020 C.ar      1 <0>        -0.0361
      5 C5          1.2232   -0.6793   -0.0133 C.ar      1 <0>        -0.0675
      6 C6          2.4032    0.0356   -0.0207 C.ar      1 <0>        -0.1211
      7 C7         -1.2664   -0.7639    0.0105 C.2       1 <0>         0.1771
      8 N1         -1.4618   -2.0750    0.0054 N.2       1 <0>        -0.5139
      9 C8         -2.6714   -2.5837    0.0147 C.2       1 <0>         0.0410
     10 C9         -3.7528   -1.7598    0.0299 C.2       1 <0>        -0.1976
     11 S1         -2.9498   -0.1617    0.0384 S.3       1 <0>         0.0583
     12 C10        -2.8616   -4.0786    0.0081 C.3       1 <0>        -0.0698
     13 C11        -2.1166   -4.6822   -1.1842 C.3       1 <0>         0.0016
     14 H1          3.3041    1.9738   -0.0197 H         1 <0>         0.1342
     15 H2          1.1570    3.1742    0.0077 H         1 <0>         0.1368
     16 H3         -0.9587    1.9197    0.0170 H         1 <0>         0.1283
     17 H4          1.2446   -1.7590   -0.0189 H         1 <0>         0.1322
     18 H5          3.3490   -0.4857   -0.0325 H         1 <0>         0.1344
     19 H6         -4.8050   -2.0029    0.0387 H         1 <0>         0.2029
     20 H7         -2.4676   -4.4991    0.9333 H         1 <0>         0.1012
     21 H8         -3.9238   -4.3094   -0.0726 H         1 <0>         0.1019
     22 H9         -2.5106   -4.2618   -2.1095 H         1 <0>         0.1337
     23 H10        -1.0544   -4.4515   -1.1036 H         1 <0>         0.1398
     24 H11        -3.2821   -6.3793   -1.1998 H         1 <0>         0.4363
     25 H12        -1.8191   -6.5620   -1.9694 H         1 <0>         0.4416
     26 N2         -2.2911   -6.1454   -1.1686 N.4       1 <0>        -0.6465
     27 H13        -1.8844   -6.5246   -0.3054 H         1 <0>         0.4402
@<TRIPOS>BOND
     1    1    6 ar
     2    1    2 ar
     3    1   14 1
     4    2    3 ar
     5    2   15 1
     6    3    4 ar
     7    3   16 1
     8    4    5 ar
     9    4    7 1
    10    5    6 ar
    11    5   17 1
    12    6   18 1
    13    7   11 1
    14    7    8 2
    15    8    9 1
    16    9   10 2
    17    9   12 1
    18   10   11 1
    19   10   19 1
    20   12   13 1
    21   12   20 1
    22   12   21 1
    23   13   22 1
    24   13   23 1
    25   13   26 1
    26   24   26 1
    27   25   26 1
    28   26   27 1
@<TRIPOS>MOLECULE
ZINC84149822
   30    31     0     0     0
SMALL
USER_CHARGES

@<TRIPOS>ATOM
      1 C1         -0.0187    1.5258    0.0104 C.3       1 <0>        -0.1445
      2 C2          0.0021   -0.0041    0.0020 C.3       1 <0>        -0.0564
      3 C3          0.7309   -0.5033    1.2229 C.2       1 <0>         0.0565
      4 C4          0.1263   -1.3835    2.0645 C.2       1 <0>        -0.1766
      5 S1          1.4142   -1.6113    3.2844 S.3       1 <0>         0.0335
      6 C5          2.6137   -0.5124    2.5423 C.2       1 <0>         0.1084
      7 N1          1.9522   -0.0933    1.4727 N.2       1 <0>        -0.4717
      8 C6          3.9781   -0.1680    2.9965 C.ar      1 <0>         0.0396
      9 C7          4.7554    0.7289    2.2626 C.ar      1 <0>        -0.0752
     10 C8          6.0277    1.0460    2.6918 C.ar      1 <0>        -0.0876
     11 C9          6.5334    0.4765    3.8468 C.ar      1 <0>        -0.1646
     12 C10         5.7680   -0.4138    4.5787 C.ar      1 <0>        -0.0854
     13 C11         4.4917   -0.7341    4.1640 C.ar      1 <0>        -0.0964
     14 C12         7.9242    0.8270    4.3094 C.3       1 <0>         0.0474
     15 N2          7.8641    1.9921    5.2021 N.4       1 <0>        -0.6373
     16 H1          1.0039    1.9031    0.0027 H         1 <0>         0.0613
     17 H2         -0.5459    1.8868   -0.8726 H         1 <0>         0.0632
     18 H3         -0.5289    1.8773    0.9072 H         1 <0>         0.0521
     19 H4         -1.0205   -0.3814    0.0098 H         1 <0>         0.0833
     20 H5          0.5123   -0.3556   -0.8948 H         1 <0>         0.0825
     21 H6         -0.8587   -1.8231    2.0112 H         1 <0>         0.2063
     22 H7          4.3621    1.1736    1.3604 H         1 <0>         0.1481
     23 H8          6.6304    1.7400    2.1247 H         1 <0>         0.1404
     24 H9          6.1687   -0.8552    5.4793 H         1 <0>         0.1407
     25 H10         3.8933   -1.4253    4.7390 H         1 <0>         0.1397
     26 H11         8.3530   -0.0197    4.8454 H         1 <0>         0.1419
     27 H12         8.5457    1.0628    3.4456 H         1 <0>         0.1420
     28 H13         7.2887    1.7738    6.0017 H         1 <0>         0.4350
     29 H14         8.7953    2.2268    5.5119 H         1 <0>         0.4386
     30 H15         7.4672    2.7759    4.7060 H         1 <0>         0.4352
@<TRIPOS>BOND
     1    1    2 1
     2    1   16 1
     3    1   17 1
     4    1   18 1
     5    2    3 1
     6    2   19 1
     7    2   20 1
     8    3    7 1
     9    3    4 2
    10    4    5 1
    11    4   21 1
    12    5    6 1
    13    6    7 2
    14    6    8 1
    15    8   13 ar
    16    8    9 ar
    17    9   10 ar
    18    9   22 1
    19   10   11 ar
    20   10   23 1
    21   11   12 ar
    22   11   14 1
    23   12   13 ar
    24   12   24 1
    25   13   25 1
    26   14   15 1
    27   14   26 1
    28   14   27 1
    29   15   28 1
    30   15   29 1
    31   15   30 1
@<TRIPOS>MOLECULE
ZINC37713642
   35    36     0     0     0
SMALL
USER_CHARGES

@<TRIPOS>ATOM
      1 C1         -0.0169    1.3914    0.0097 C.ar      1 <0>        -0.0598
      2 C2          1.1695    2.0947    0.0021 C.ar      1 <0>        -0.1505
      3 C3          2.3789    1.4182   -0.0135 C.ar      1 <0>         0.1260
      4 C4          2.4033    0.0326   -0.0212 C.ar      1 <0>        -0.1550
      5 C5          1.2228   -0.6804   -0.0137 C.ar      1 <0>        -0.0382
      6 C6          0.0021   -0.0041    0.0020 C.ar      1 <0>        -0.0364
      7 C7         -1.2666   -0.7632    0.0105 C.2       1 <0>         0.1634
      8 N1         -1.4625   -2.0744    0.0109 N.2       1 <0>        -0.4842
      9 C8         -2.6728   -2.5824    0.0199 C.2       1 <0>         0.0590
     10 C9         -3.7535   -1.7580    0.0291 C.2       1 <0>        -0.2029
     11 S1         -2.9497   -0.1603    0.0311 S.3       1 <0>         0.0324
     12 C10        -2.8638   -4.0772    0.0196 C.3       1 <0>         0.1321
     13 N2         -2.8166   -4.5766   -1.3611 N.3       1 <0>        -0.6818
     14 C11        -2.9997   -6.0336   -1.4005 C.3       1 <0>         0.0605
     15 C12        -2.9445   -6.5155   -2.8516 C.3       1 <0>        -0.1522
     16 C13        -3.1352   -8.0330   -2.8926 C.3       1 <0>        -0.0068
     17 N3         -3.0823   -8.4957   -4.2859 N.4       1 <0>        -0.6372
     18 F1          3.5381    2.1119   -0.0217 F         1 <0>        -0.1294
     19 H1         -0.9588    1.9196    0.0260 H         1 <0>         0.1381
     20 H2          1.1559    3.1746    0.0081 H         1 <0>         0.1480
     21 H3          3.3485   -0.4898   -0.0334 H         1 <0>         0.1465
     22 H4          1.2429   -1.7602   -0.0204 H         1 <0>         0.1458
     23 H5         -4.8058   -2.0005    0.0368 H         1 <0>         0.1979
     24 H6         -2.0705   -4.5450    0.6025 H         1 <0>         0.0935
     25 H7         -3.8305   -4.3200    0.4609 H         1 <0>         0.0530
     26 H8         -3.5008   -4.1104   -1.9378 H         1 <0>         0.3445
     27 H9         -2.2073   -6.5150   -0.8274 H         1 <0>         0.0859
     28 H10        -3.9673   -6.2900   -0.9690 H         1 <0>         0.0423
     29 H11        -3.7370   -6.0341   -3.4247 H         1 <0>         0.0865
     30 H12        -1.9770   -6.2591   -3.2831 H         1 <0>         0.0983
     31 H13        -2.3428   -8.5144   -2.3196 H         1 <0>         0.1360
     32 H14        -4.1028   -8.2894   -2.4612 H         1 <0>         0.1334
     33 H15        -3.8158   -8.0501   -4.8163 H         1 <0>         0.4354
     34 H16        -2.1866   -8.2583   -4.6853 H         1 <0>         0.4367
     35 H17        -3.2080   -9.4964   -4.3129 H         1 <0>         0.4394
@<TRIPOS>BOND
     1    1    6 ar
     2    1    2 ar
     3    1   19 1
     4    2    3 ar
     5    2   20 1
     6    3    4 ar
     7    3   18 1
     8    4    5 ar
     9    4   21 1
    10    5    6 ar
    11    5   22 1
    12    6    7 1
    13    7   11 1
    14    7    8 2
    15    8    9 1
    16    9   10 2
    17    9   12 1
    18   10   11 1
    19   10   23 1
    20   12   13 1
    21   12   24 1
    22   12   25 1
    23   13   14 1
    24   13   26 1
    25   14   15 1
    26   14   27 1
    27   14   28 1
    28   15   16 1
    29   15   29 1
    30   15   30 1
    31   16   17 1
    32   16   31 1
    33   16   32 1
    34   17   33 1
    35   17   34 1
    36   17   35 1
@<TRIPOS>MOLECULE
ZINC37713642
   36    37     0     0     0
SMALL
USER_CHARGES

@<TRIPOS>ATOM
      1 C1         -0.0169    1.3914    0.0097 C.ar      1 <0>        -0.0507
      2 C2          1.1695    2.0947    0.0021 C.ar      1 <0>        -0.1490
      3 C3          2.3789    1.4182   -0.0135 C.ar      1 <0>         0.1454
      4 C4          2.4033    0.0326   -0.0212 C.ar      1 <0>        -0.1568
      5 C5          1.2228   -0.6804   -0.0137 C.ar      1 <0>        -0.0322
      6 C6          0.0021   -0.0041    0.0020 C.ar      1 <0>        -0.0627
      7 C7         -1.2666   -0.7632    0.0105 C.2       1 <0>         0.1912
      8 N1         -1.4625   -2.0744    0.0109 N.2       1 <0>        -0.5149
      9 C8         -2.6728   -2.5824    0.0199 C.2       1 <0>        -0.0154
     10 C9         -3.7535   -1.7580    0.0291 C.2       1 <0>        -0.1866
     11 S1         -2.9497   -0.1603    0.0311 S.3       1 <0>         0.1141
     12 C10        -2.8638   -4.0772    0.0196 C.3       1 <0>         0.0802
     13 N2         -2.8166   -4.5766   -1.3611 N.4       1 <0>        -0.5088
     14 C11        -3.0028   -6.0337   -1.3614 C.3       1 <0>        -0.0048
     15 C12        -2.9536   -6.5538   -2.7995 C.3       1 <0>        -0.1872
     16 C13        -3.1476   -8.0715   -2.7998 C.3       1 <0>        -0.0020
     17 N3         -3.1004   -8.5709   -4.1805 N.4       1 <0>        -0.6383
     18 F1          3.5381    2.1119   -0.0217 F         1 <0>        -0.1206
     19 H1         -0.9588    1.9196    0.0260 H         1 <0>         0.1400
     20 H2          1.1559    3.1746    0.0081 H         1 <0>         0.1543
     21 H3          3.3485   -0.4898   -0.0334 H         1 <0>         0.1511
     22 H4          1.2429   -1.7602   -0.0204 H         1 <0>         0.1435
     23 H5         -4.8058   -2.0005    0.0368 H         1 <0>         0.2102
     24 H6         -2.0705   -4.5450    0.6025 H         1 <0>         0.1487
     25 H7         -3.8305   -4.3200    0.4609 H         1 <0>         0.1492
     26 H8         -3.5510   -4.1435   -1.9007 H         1 <0>         0.4297
     27 H9         -2.2095   -6.5016   -0.7785 H         1 <0>         0.1452
     28 H10        -3.9695   -6.2766   -0.9201 H         1 <0>         0.1451
     29 H11        -3.7470   -6.0860   -3.3824 H         1 <0>         0.1123
     30 H12        -1.9870   -6.3110   -3.2408 H         1 <0>         0.1124
     31 H13        -2.3543   -8.5393   -2.2169 H         1 <0>         0.1458
     32 H14        -4.1143   -8.3143   -2.3585 H         1 <0>         0.1457
     33 H15        -3.2283   -9.5717   -4.1808 H         1 <0>         0.4508
     34 H16        -3.8348   -8.1378   -4.7201 H         1 <0>         0.4401
     35 H17        -2.2056   -8.3461   -4.5891 H         1 <0>         0.4403
     36 H18        -1.9218   -4.3518   -1.7696 H         1 <0>         0.4347
@<TRIPOS>BOND
     1    1    6 ar
     2    1    2 ar
     3    1   19 1
     4    2    3 ar
     5    2   20 1
     6    3    4 ar
     7    3   18 1
     8    4    5 ar
     9    4   21 1
    10    5    6 ar
    11    5   22 1
    12    6    7 1
    13    7   11 1
    14    7    8 2
    15    8    9 1
    16    9   10 2
    17    9   12 1
    18   10   11 1
    19   10   23 1
    20   12   13 1
    21   12   24 1
    22   12   25 1
    23   13   14 1
    24   13   26 1
    25   13   36 1
    26   14   15 1
    27   14   27 1
    28   14   28 1
    29   15   16 1
    30   15   29 1
    31   15   30 1
    32   16   17 1
    33   16   31 1
    34   16   32 1
    35   17   33 1
    36   17   34 1
    37   17   35 1
@<TRIPOS>MOLECULE
ZINC71962178
   33    34     0     0     0
SMALL
USER_CHARGES

@<TRIPOS>ATOM
      1 C1         -0.0187    1.5258    0.0104 C.3       1 <0>        -0.1887
      2 C2          0.0021   -0.0041    0.0020 C.3       1 <0>        -0.0106
      3 N1          0.6897   -0.4778   -1.2066 N.4       1 <0>        -0.3846
      4 C3         -0.0856   -0.0931   -2.3936 C.3       1 <0>        -0.0482
      5 C4          0.8155   -1.9406   -1.1568 C.3       1 <0>         0.0754
      6 C5          1.6274   -2.4153   -2.3343 C.2       1 <0>        -0.0035
      7 C6          2.9635   -2.6256   -2.1995 C.2       1 <0>        -0.1817
      8 S1          3.3822   -3.1597   -3.8542 S.3       1 <0>         0.0949
      9 C7          1.7362   -3.0448   -4.5431 C.2       1 <0>         0.1821
     10 N2          1.0445   -2.6315   -3.4903 N.2       1 <0>        -0.5067
     11 C8          1.2709   -3.3373   -5.9156 C.ar      1 <0>        -0.0541
     12 C9         -0.0745   -3.1733   -6.2488 C.ar      1 <0>        -0.0338
     13 C10        -0.5032   -3.4476   -7.5306 C.ar      1 <0>        -0.1555
     14 C11         0.3991   -3.8857   -8.4869 C.ar      1 <0>         0.1390
     15 C12         1.7361   -4.0502   -8.1613 C.ar      1 <0>        -0.1497
     16 C13         2.1765   -3.7728   -6.8841 C.ar      1 <0>        -0.0534
     17 F1         -0.0263   -4.1538   -9.7408 F         1 <0>        -0.1240
     18 H1          1.0039    1.9031    0.0027 H         1 <0>         0.0798
     19 H2         -0.5459    1.8868   -0.8726 H         1 <0>         0.0809
     20 H3         -0.5289    1.8773    0.9072 H         1 <0>         0.1069
     21 H4          0.5293   -0.3651    0.8851 H         1 <0>         0.1308
     22 H5         -1.0205   -0.3814    0.0098 H         1 <0>         0.1306
     23 H6         -0.1790    0.9922   -2.4305 H         1 <0>         0.1216
     24 H7          0.4246   -0.4447   -3.2904 H         1 <0>         0.1233
     25 H8         -1.0777   -0.5416   -2.3406 H         1 <0>         0.1237
     26 H9          1.3131   -2.2312   -0.2316 H         1 <0>         0.1438
     27 H10        -0.1760   -2.3920   -1.1934 H         1 <0>         0.1430
     28 H11         3.5968   -2.5037   -1.3332 H         1 <0>         0.2103
     29 H12        -0.7786   -2.8326   -5.5041 H         1 <0>         0.1451
     30 H13        -1.5441   -3.3210   -7.7894 H         1 <0>         0.1501
     31 H14         2.4351   -4.3918   -8.9103 H         1 <0>         0.1518
     32 H15         3.2195   -3.8966   -6.6327 H         1 <0>         0.1393
     33 H16         1.6080   -0.0627   -1.2556 H         1 <0>         0.4221
@<TRIPOS>BOND
     1    1    2 1
     2    1   18 1
     3    1   19 1
     4    1   20 1
     5    2    3 1
     6    2   21 1
     7    2   22 1
     8    3    4 1
     9    3    5 1
    10    3   33 1
    11    4   23 1
    12    4   24 1
    13    4   25 1
    14    5    6 1
    15    5   26 1
    16    5   27 1
    17    6   10 1
    18    6    7 2
    19    7    8 1
    20    7   28 1
    21    8    9 1
    22    9   10 2
    23    9   11 1
    24   11   16 ar
    25   11   12 ar
    26   12   13 ar
    27   12   29 1
    28   13   14 ar
    29   13   30 1
    30   14   15 ar
    31   14   17 1
    32   15   16 ar
    33   15   31 1
    34   16   32 1
@<TRIPOS>MOLECULE
ZINC35163442
   31    32     0     0     0
SMALL
USER_CHARGES

@<TRIPOS>ATOM
      1 C1         -0.0169    1.3914    0.0097 C.ar      1 <0>        -0.0534
      2 C2          1.1695    2.0947    0.0021 C.ar      1 <0>        -0.1503
      3 C3          2.3789    1.4182   -0.0135 C.ar      1 <0>         0.1391
      4 C4          2.4033    0.0326   -0.0212 C.ar      1 <0>        -0.1554
      5 C5          1.2228   -0.6804   -0.0137 C.ar      1 <0>        -0.0326
      6 C6          0.0021   -0.0041    0.0020 C.ar      1 <0>        -0.0550
      7 C7         -1.2666   -0.7632    0.0105 C.2       1 <0>         0.1847
      8 N1         -1.4625   -2.0744    0.0109 N.2       1 <0>        -0.5070
      9 C8         -2.6728   -2.5824    0.0199 C.2       1 <0>        -0.0075
     10 C9         -3.7535   -1.7580    0.0291 C.2       1 <0>        -0.1828
     11 S1         -2.9497   -0.1603    0.0311 S.3       1 <0>         0.0960
     12 C10        -2.8638   -4.0772    0.0196 C.3       1 <0>         0.0771
     13 N2         -2.8166   -4.5766   -1.3611 N.4       1 <0>        -0.5063
     14 C11        -3.0028   -6.0337   -1.3614 C.3       1 <0>        -0.0040
     15 C12        -2.9536   -6.5538   -2.7995 C.3       1 <0>         0.0445
     16 O1         -1.6479   -6.3395   -3.3391 O.3       1 <0>        -0.5812
     17 F1          3.5381    2.1119   -0.0217 F         1 <0>        -0.1241
     18 H1         -0.9588    1.9196    0.0260 H         1 <0>         0.1393
     19 H2          1.1559    3.1746    0.0081 H         1 <0>         0.1518
     20 H3          3.3485   -0.4898   -0.0334 H         1 <0>         0.1503
     21 H4          1.2429   -1.7602   -0.0204 H         1 <0>         0.1458
     22 H5         -4.8058   -2.0005    0.0368 H         1 <0>         0.2108
     23 H6         -2.0705   -4.5450    0.6025 H         1 <0>         0.1456
     24 H7         -3.8305   -4.3200    0.4609 H         1 <0>         0.1462
     25 H8         -3.5510   -4.1435   -1.9007 H         1 <0>         0.4244
     26 H9         -2.2095   -6.5016   -0.7785 H         1 <0>         0.1404
     27 H10        -3.9695   -6.2766   -0.9201 H         1 <0>         0.1462
     28 H11        -3.1798   -7.6201   -2.8082 H         1 <0>         0.0972
     29 H12        -3.6884   -6.0216   -3.4037 H         1 <0>         0.0720
     30 H13        -1.5438   -6.6459   -4.2504 H         1 <0>         0.4100
     31 H14        -1.9218   -4.3518   -1.7696 H         1 <0>         0.4383
@<TRIPOS>BOND
     1    1    6 ar
     2    1    2 ar
     3    1   18 1
     4    2    3 ar
     5    2   19 1
     6    3    4 ar
     7    3   17 1
     8    4    5 ar
     9    4   20 1
    10    5    6 ar
    11    5   21 1
    12    6    7 1
    13    7   11 1
    14    7    8 2
    15    8    9 1
    16    9   10 2
    17    9   12 1
    18   10   11 1
    19   10   22 1
    20   12   13 1
    21   12   23 1
    22   12   24 1
    23   13   14 1
    24   13   25 1
    25   13   31 1
    26   14   15 1
    27   14   26 1
    28   14   27 1
    29   15   16 1
    30   15   28 1
    31   15   29 1
    32   16   30 1
@<TRIPOS>MOLECULE
ZINC35163458
   31    32     0     0     0
SMALL
USER_CHARGES

@<TRIPOS>ATOM
      1 C1         -0.0157    1.3058    0.0092 C.2       1 <0>        -0.0993
      2 C2          0.0021   -0.0041    0.0020 C.2       1 <0>        -0.2433
      3 C3          1.3172   -0.7397   -0.0145 C.3       1 <0>         0.0313
      4 N1          1.3676   -1.6781    1.1146 N.4       1 <0>        -0.5062
      5 C4          2.6495   -2.3953    1.0985 C.3       1 <0>         0.0774
      6 C5          2.7012   -3.3580    2.2567 C.2       1 <0>        -0.0085
      7 C6          2.3480   -4.6582    2.0775 C.2       1 <0>        -0.1813
      8 S1          2.5967   -5.2985    3.7287 S.3       1 <0>         0.0966
      9 C7          3.1426   -3.7684    4.4756 C.2       1 <0>         0.1839
     10 N2          3.0925   -2.9435    3.4391 N.2       1 <0>        -0.5078
     11 C8          3.5464   -3.4975    5.8718 C.ar      1 <0>        -0.0548
     12 C9          3.9379   -2.2126    6.2508 C.ar      1 <0>        -0.0331
     13 C10         4.3137   -1.9653    7.5545 C.ar      1 <0>        -0.1555
     14 C11         4.3035   -2.9901    8.4875 C.ar      1 <0>         0.1391
     15 C12         3.9156   -4.2678    8.1164 C.ar      1 <0>        -0.1500
     16 C13         3.5320   -4.5245    6.8168 C.ar      1 <0>        -0.0533
     17 F1          4.6733   -2.7427    9.7631 F         1 <0>        -0.1240
     18 H1          0.9122    1.8585    0.0033 H         1 <0>         0.1125
     19 H2         -0.9582    1.8330    0.0166 H         1 <0>         0.1234
     20 H3         -0.9258   -0.5567    0.0079 H         1 <0>         0.1346
     21 H4          1.4134   -1.2911   -0.9498 H         1 <0>         0.1380
     22 H5          2.1349   -0.0241    0.0711 H         1 <0>         0.1328
     23 H6          1.2785   -1.1677    1.9804 H         1 <0>         0.4316
     24 H7          2.7457   -2.9467    0.1632 H         1 <0>         0.1463
     25 H8          3.4672   -1.6796    1.1841 H         1 <0>         0.1451
     26 H9          2.0103   -5.1644    1.1852 H         1 <0>         0.2109
     27 H10         3.9468   -1.4135    5.5244 H         1 <0>         0.1453
     28 H11         4.6167   -0.9714    7.8489 H         1 <0>         0.1502
     29 H12         3.9095   -5.0628    8.8473 H         1 <0>         0.1519
     30 H13         3.2253   -5.5194    6.5298 H         1 <0>         0.1394
     31 H14         0.6106   -2.3406    1.0353 H         1 <0>         0.4267
@<TRIPOS>BOND
     1    1    2 2
     2    1   18 1
     3    1   19 1
     4    2    3 1
     5    2   20 1
     6    3    4 1
     7    3   21 1
     8    3   22 1
     9    4    5 1
    10    4   23 1
    11    4   31 1
    12    5    6 1
    13    5   24 1
    14    5   25 1
    15    6   10 1
    16    6    7 2
    17    7    8 1
    18    7   26 1
    19    8    9 1
    20    9   10 2
    21    9   11 1
    22   11   16 ar
    23   11   12 ar
    24   12   13 ar
    25   12   27 1
    26   13   14 ar
    27   13   28 1
    28   14   15 ar
    29   14   17 1
    30   15   16 ar
    31   15   29 1
    32   16   30 1
@<TRIPOS>MOLECULE
ZINC35163459
   36    37     0     0     0
SMALL
USER_CHARGES

@<TRIPOS>ATOM
      1 C1         -0.0187    1.5258    0.0104 C.3       1 <0>        -0.1524
      2 C2          0.0021   -0.0041    0.0020 C.3       1 <0>        -0.1187
      3 C3          0.7421   -0.5109    1.2415 C.3       1 <0>        -0.1711
      4 C4         -1.4333   -0.5336    0.0129 C.3       1 <0>        -0.0075
      5 N1         -1.4164   -1.9969   -0.1159 N.4       1 <0>        -0.5089
      6 C5         -2.7945   -2.5054   -0.1054 C.3       1 <0>         0.0776
      7 C6         -2.7771   -4.0065   -0.2375 C.2       1 <0>        -0.0086
      8 C7         -2.8304   -4.7882    0.8732 C.2       1 <0>        -0.1820
      9 S1         -2.7808   -6.4159    0.1339 S.3       1 <0>         0.0971
     10 C8         -2.6947   -5.8789   -1.5694 C.2       1 <0>         0.1839
     11 N2         -2.7160   -4.5612   -1.4255 N.2       1 <0>        -0.5076
     12 C9         -2.6243   -6.6868   -2.8056 C.ar      1 <0>        -0.0548
     13 C10        -2.5567   -6.0584   -4.0500 C.ar      1 <0>        -0.0331
     14 C11        -2.4913   -6.8167   -5.2000 C.ar      1 <0>        -0.1555
     15 C12        -2.4930   -8.2004   -5.1217 C.ar      1 <0>         0.1392
     16 C13        -2.5600   -8.8294   -3.8886 C.ar      1 <0>        -0.1500
     17 C14        -2.6195   -8.0805   -2.7320 C.ar      1 <0>        -0.0533
     18 F1         -2.4297   -8.9386   -6.2514 F         1 <0>        -0.1240
     19 H1          1.0039    1.9031    0.0027 H         1 <0>         0.0779
     20 H2         -0.5459    1.8868   -0.8726 H         1 <0>         0.0684
     21 H3         -0.5289    1.8773    0.9072 H         1 <0>         0.0685
     22 H4          0.5123   -0.3556   -0.8948 H         1 <0>         0.0938
     23 H5          0.2319   -0.1594    2.1383 H         1 <0>         0.0734
     24 H6          0.7568   -1.6008    1.2356 H         1 <0>         0.0506
     25 H7          1.7647   -0.1336    1.2338 H         1 <0>         0.0836
     26 H8         -1.9156   -0.2570    0.9504 H         1 <0>         0.1340
     27 H9         -1.9862   -0.1019   -0.8214 H         1 <0>         0.1350
     28 H10        -0.9699   -2.2530   -0.9837 H         1 <0>         0.4307
     29 H11        -3.2768   -2.2287    0.8321 H         1 <0>         0.1460
     30 H12        -3.3474   -2.0736   -0.9397 H         1 <0>         0.1458
     31 H13        -2.8867   -4.5049    1.9139 H         1 <0>         0.2107
     32 H14        -2.5560   -4.9802   -4.1122 H         1 <0>         0.1454
     33 H15        -2.4389   -6.3314   -6.1635 H         1 <0>         0.1502
     34 H16        -2.5611   -9.9080   -3.8330 H         1 <0>         0.1519
     35 H17        -2.6668   -8.5716   -1.7713 H         1 <0>         0.1394
     36 H18        -0.9046   -2.3966    0.6564 H         1 <0>         0.4243
@<TRIPOS>BOND
     1    1    2 1
     2    1   19 1
     3    1   20 1
     4    1   21 1
     5    2    3 1
     6    2    4 1
     7    2   22 1
     8    3   23 1
     9    3   24 1
    10    3   25 1
    11    4    5 1
    12    4   26 1
    13    4   27 1
    14    5    6 1
    15    5   28 1
    16    5   36 1
    17    6    7 1
    18    6   29 1
    19    6   30 1
    20    7   11 1
    21    7    8 2
    22    8    9 1
    23    8   31 1
    24    9   10 1
    25   10   11 2
    26   10   12 1
    27   12   17 ar
    28   12   13 ar
    29   13   14 ar
    30   13   32 1
    31   14   15 ar
    32   14   33 1
    33   15   16 ar
    34   15   18 1
    35   16   17 ar
    36   16   34 1
    37   17   35 1
@<TRIPOS>MOLECULE
ZINC40492857
   39    40     0     0     0
SMALL
USER_CHARGES

@<TRIPOS>ATOM
      1 C1         -0.0187    1.5258    0.0104 C.3       1 <0>        -0.1663
      2 C2          0.0021   -0.0041    0.0020 C.3       1 <0>        -0.0878
      3 C3          0.7421   -0.5109    1.2415 C.3       1 <0>        -0.1661
      4 C4         -1.4333   -0.5336    0.0129 C.3       1 <0>        -0.1468
      5 C5          0.7182   -0.4975   -1.2568 C.3       1 <0>        -0.0025
      6 N1          2.0964    0.0110   -1.2672 N.4       1 <0>        -0.5102
      7 C6          2.7840   -0.4628   -2.4758 C.3       1 <0>         0.0769
      8 C7          4.1978    0.0589   -2.4865 C.2       1 <0>        -0.0086
      9 C8          5.2109   -0.7106   -2.0078 C.2       1 <0>        -0.1818
     10 S1          6.6041    0.3809   -2.2648 S.3       1 <0>         0.0972
     11 C9          5.6875    1.7393   -2.9800 C.2       1 <0>         0.1836
     12 N2          4.4536    1.2548   -2.9632 N.2       1 <0>        -0.5074
     13 C10         6.1750    3.0483   -3.4646 C.ar      1 <0>        -0.0546
     14 C11         5.2772    3.9797   -3.9883 C.ar      1 <0>        -0.0332
     15 C12         5.7373    5.1992   -4.4391 C.ar      1 <0>        -0.1555
     16 C13         7.0885    5.5003   -4.3732 C.ar      1 <0>         0.1391
     17 C14         7.9842    4.5789   -3.8541 C.ar      1 <0>        -0.1499
     18 C15         7.5339    3.3589   -3.3949 C.ar      1 <0>        -0.0533
     19 F1          7.5341    6.6960   -4.8169 F         1 <0>        -0.1240
     20 H1          1.0039    1.9031    0.0027 H         1 <0>         0.0505
     21 H2         -0.5459    1.8868   -0.8726 H         1 <0>         0.0747
     22 H3         -0.5289    1.8773    0.9072 H         1 <0>         0.0852
     23 H4          0.2319   -0.1594    2.1383 H         1 <0>         0.0854
     24 H5          0.7568   -1.6008    1.2356 H         1 <0>         0.0745
     25 H6          1.7647   -0.1336    1.2338 H         1 <0>         0.0502
     26 H7         -1.9605   -0.1726   -0.8702 H         1 <0>         0.0692
     27 H8         -1.4185   -1.6235    0.0069 H         1 <0>         0.0690
     28 H9         -1.9435   -0.1821    0.9097 H         1 <0>         0.0782
     29 H10         0.7330   -1.5874   -1.2628 H         1 <0>         0.1354
     30 H11         0.1910   -0.1364   -2.1398 H         1 <0>         0.1355
     31 H12         2.0827    1.0199   -1.2617 H         1 <0>         0.4292
     32 H13         2.7987   -1.5526   -2.4818 H         1 <0>         0.1465
     33 H14         2.2568   -0.1017   -3.3589 H         1 <0>         0.1459
     34 H15         5.1823   -1.7053   -1.5881 H         1 <0>         0.2109
     35 H16         4.2242    3.7458   -4.0407 H         1 <0>         0.1453
     36 H17         5.0434    5.9207   -4.8445 H         1 <0>         0.1502
     37 H18         9.0361    4.8185   -3.8050 H         1 <0>         0.1519
     38 H19         8.2321    2.6435   -2.9860 H         1 <0>         0.1394
     39 H20         2.5844   -0.3233   -0.4498 H         1 <0>         0.4239
@<TRIPOS>BOND
     1    1    2 1
     2    1   20 1
     3    1   21 1
     4    1   22 1
     5    2    3 1
     6    2    4 1
     7    2    5 1
     8    3   23 1
     9    3   24 1
    10    3   25 1
    11    4   26 1
    12    4   27 1
    13    4   28 1
    14    5    6 1
    15    5   29 1
    16    5   30 1
    17    6    7 1
    18    6   31 1
    19    6   39 1
    20    7    8 1
    21    7   32 1
    22    7   33 1
    23    8   12 1
    24    8    9 2
    25    9   10 1
    26    9   34 1
    27   10   11 1
    28   11   12 2
    29   11   13 1
    30   13   18 ar
    31   13   14 ar
    32   14   15 ar
    33   14   35 1
    34   15   16 ar
    35   15   36 1
    36   16   17 ar
    37   16   19 1
    38   17   18 ar
    39   17   37 1
    40   18   38 1
@<TRIPOS>MOLECULE
ZINC52903515
   27    28     0     0     0
SMALL
USER_CHARGES

@<TRIPOS>ATOM
      1 C1         -0.0178    1.4648    0.0101 C.3       1 <0>        -0.0465
      2 N1          0.0021   -0.0041    0.0020 N.4       1 <0>        -0.5086
      3 C2         -1.3761   -0.5125    0.0124 C.3       1 <0>         0.0767
      4 C3         -1.3556   -2.0194    0.0042 C.2       1 <0>        -0.0162
      5 C4         -1.4429   -2.7077    1.1728 C.2       1 <0>        -0.2012
      6 S1         -1.3720   -4.3903    0.5711 S.3       1 <0>         0.1463
      7 C5         -1.2342   -3.9944   -1.1671 C.2       1 <0>         0.1525
      8 N2         -1.2590   -2.6693   -1.1323 N.2       1 <0>        -0.4890
      9 C6         -1.1270   -4.9005   -2.3300 C.ar      1 <0>        -0.0622
     10 C7         -1.0212   -4.3762   -3.6213 C.ar      1 <0>         0.1635
     11 C8         -0.9209   -5.2300   -4.7034 C.ar      1 <0>        -0.1469
     12 C9         -0.9251   -6.5997   -4.5103 C.ar      1 <0>        -0.0447
     13 C10        -1.0296   -7.1250   -3.2350 C.ar      1 <0>        -0.1117
     14 C11        -1.1252   -6.2842   -2.1434 C.ar      1 <0>         0.0050
     15 Cl1        -1.2489   -6.9464   -0.5434 Cl        1 <0>        -0.0150
     16 F1         -1.0174   -3.0387   -3.8112 F         1 <0>        -0.1109
     17 H1          1.0047    1.8421    0.0024 H         1 <0>         0.1273
     18 H2         -0.5450    1.8259   -0.8730 H         1 <0>         0.1251
     19 H3         -0.5280    1.8163    0.9069 H         1 <0>         0.1248
     20 H4          0.4744   -0.3295   -0.8281 H         1 <0>         0.4333
     21 H5         -1.8863   -0.1610    0.9092 H         1 <0>         0.1454
     22 H6         -1.9033   -0.1515   -0.8706 H         1 <0>         0.1443
     23 H7         -1.5304   -2.3403    2.1846 H         1 <0>         0.2080
     24 H8         -0.8394   -4.8269   -5.7021 H         1 <0>         0.1573
     25 H9         -0.8468   -7.2624   -5.3595 H         1 <0>         0.1583
     26 H10        -1.0325   -8.1955   -3.0921 H         1 <0>         0.1570
     27 H11         0.4901   -0.3383    0.8195 H         1 <0>         0.4279
@<TRIPOS>BOND
     1    1    2 1
     2    1   17 1
     3    1   18 1
     4    1   19 1
     5    2    3 1
     6    2   20 1
     7    2   27 1
     8    3    4 1
     9    3   21 1
    10    3   22 1
    11    4    8 1
    12    4    5 2
    13    5    6 1
    14    5   23 1
    15    6    7 1
    16    7    8 2
    17    7    9 1
    18    9   14 ar
    19    9   10 ar
    20   10   11 ar
    21   10   16 1
    22   11   12 ar
    23   11   24 1
    24   12   13 ar
    25   12   25 1
    26   13   14 ar
    27   13   26 1
    28   14   15 1
@<TRIPOS>MOLECULE
ZINC02651894
   20    21     0     0     0
SMALL
USER_CHARGES
2-(4-chlorophenyl)thiazole-4-carbaldehyde
@<TRIPOS>ATOM
      1 C1         -2.4447   -0.4715    0.0302 C.ar      1 <0>        -0.0568
      2 C2         -3.5008   -1.3589    0.0313 C.ar      1 <0>        -0.1087
      3 C3         -3.2624   -2.7230    0.0216 C.ar      1 <0>        -0.0176
      4 C4         -1.9640   -3.2042    0.0053 C.ar      1 <0>        -0.1073
      5 C5         -0.9002   -2.3261   -0.0013 C.ar      1 <0>        -0.0804
      6 C6         -1.1344   -0.9506    0.0085 C.ar      1 <0>        -0.0147
      7 C7          0.0021   -0.0041    0.0020 C.2       1 <0>         0.1286
      8 N1         -0.0158    1.3146    0.0093 N.2       1 <0>        -0.4467
      9 C8          1.1231    1.9949    0.0020 C.2       1 <0>        -0.0473
     10 C9          2.3184    1.2913   -0.0131 C.2       1 <0>        -0.1790
     11 S1          1.7534   -0.3508   -0.0166 S.3       1 <0>         0.1095
     12 C10         1.1184    3.4596    0.0095 C.2       1 <0>         0.4013
     13 O1          0.0656    4.0630    0.0228 O.2       1 <0>        -0.4333
     14 Cl1        -4.5963   -3.8340    0.0303 Cl        1 <0>        -0.0579
     15 H1         -2.6318    0.5921    0.0420 H         1 <0>         0.1470
     16 H2         -4.5154   -0.9892    0.0443 H         1 <0>         0.1441
     17 H3         -1.7840   -4.2691   -0.0019 H         1 <0>         0.1443
     18 H4          0.1120   -2.7026   -0.0136 H         1 <0>         0.1374
     19 H5          3.3316    1.6653   -0.0208 H         1 <0>         0.2131
     20 H6          2.0519    4.0026    0.0031 H         1 <0>         0.1243
@<TRIPOS>BOND
     1    1    6 ar
     2    1    2 ar
     3    1   15 1
     4    2    3 ar
     5    2   16 1
     6    3    4 ar
     7    3   14 1
     8    4    5 ar
     9    4   17 1
    10    5    6 ar
    11    5   18 1
    12    6    7 1
    13    7   11 1
    14    7    8 2
    15    8    9 1
    16    9   10 2
    17    9   12 1
    18   10   11 1
    19   10   19 1
    20   12   13 2
    21   12   20 1
@<TRIPOS>MOLECULE
ZINC70840002
   27    28     0     0     0
SMALL
USER_CHARGES

@<TRIPOS>ATOM
      1 C1         -0.0187    1.5258    0.0104 C.3       1 <0>        -0.1777
      2 C2          0.0021   -0.0041    0.0020 C.3       1 <0>         0.1173
      3 H1         -1.0205   -0.3814    0.0098 H         1 <0>         0.1540
      4 C3          0.7309   -0.5033    1.2229 C.2       1 <0>        -0.0091
      5 C4          0.1265   -1.3833    2.0642 C.2       1 <0>        -0.1706
      6 S1          1.4144   -1.6118    3.2838 S.3       1 <0>         0.1105
      7 C5          2.6142   -0.5131    2.5420 C.2       1 <0>         0.1738
      8 N1          1.9525   -0.0932    1.4727 N.2       1 <0>        -0.5067
      9 C6          3.9785   -0.1692    2.9962 C.ar      1 <0>        -0.0203
     10 C7          4.7556    0.7279    2.2617 C.ar      1 <0>        -0.0458
     11 C8          6.0279    1.0461    2.6888 C.ar      1 <0>        -0.1247
     12 C9          6.5362    0.4772    3.8452 C.ar      1 <0>         0.1051
     13 C10         5.7687   -0.4155    4.5801 C.ar      1 <0>         0.0785
     14 C11         4.4913   -0.7360    4.1636 C.ar      1 <0>        -0.0955
     15 F1          6.2695   -0.9672    5.7070 F         1 <0>        -0.1137
     16 F2          7.7832    0.7921    4.2587 F         1 <0>        -0.1122
     17 N2          0.6897   -0.4778   -1.2066 N.4       1 <0>        -0.6342
     18 H2          1.0039    1.9031    0.0027 H         1 <0>         0.0902
     19 H3         -0.5459    1.8868   -0.8726 H         1 <0>         0.0870
     20 H4         -0.5289    1.8773    0.9072 H         1 <0>         0.1041
     21 H5         -0.8587   -1.8226    2.0110 H         1 <0>         0.2126
     22 H6          4.3612    1.1722    1.3598 H         1 <0>         0.1523
     23 H7          6.6293    1.7400    2.1203 H         1 <0>         0.1615
     24 H8          3.8923   -1.4273    4.7379 H         1 <0>         0.1523
     25 H9          1.6363   -0.1286   -1.2138 H         1 <0>         0.4380
     26 H10         0.7033   -1.4867   -1.2121 H         1 <0>         0.4350
     27 H11         0.2017   -0.1436   -2.0240 H         1 <0>         0.4380
@<TRIPOS>BOND
     1    1    2 1
     2    1   18 1
     3    1   19 1
     4    1   20 1
     5    2    3 1
     6    2    4 1
     7    2   17 1
     8    4    8 1
     9    4    5 2
    10    5    6 1
    11    5   21 1
    12    6    7 1
    13    7    8 2
    14    7    9 1
    15    9   14 ar
    16    9   10 ar
    17   10   11 ar
    18   10   22 1
    19   11   12 ar
    20   11   23 1
    21   12   13 ar
    22   12   16 1
    23   13   14 ar
    24   13   15 1
    25   14   24 1
    26   17   25 1
    27   17   26 1
    28   17   27 1
@<TRIPOS>MOLECULE
ZINC70839998
   27    28     0     0     0
SMALL
USER_CHARGES

@<TRIPOS>ATOM
      1 C1         -0.0187    1.5258    0.0104 C.3       1 <0>        -0.1753
      2 C2          0.0021   -0.0041    0.0020 C.3       1 <0>         0.1096
      3 H1          0.5123   -0.3556   -0.8948 H         1 <0>         0.1587
      4 C3          0.7309   -0.5033    1.2229 C.2       1 <0>         0.0394
      5 C4          0.1265   -1.3833    2.0642 C.2       1 <0>        -0.2560
      6 S1          1.4144   -1.6118    3.2838 S.3       1 <0>         0.1177
      7 C5          2.6142   -0.5131    2.5420 C.2       1 <0>         0.1880
      8 N1          1.9525   -0.0932    1.4727 N.2       1 <0>        -0.4934
      9 C6          3.9785   -0.1692    2.9962 C.ar      1 <0>        -0.0249
     10 C7          4.7556    0.7279    2.2617 C.ar      1 <0>        -0.0406
     11 C8          6.0279    1.0461    2.6888 C.ar      1 <0>        -0.1247
     12 C9          6.5362    0.4772    3.8452 C.ar      1 <0>         0.1076
     13 C10         5.7687   -0.4155    4.5801 C.ar      1 <0>         0.0766
     14 C11         4.4913   -0.7360    4.1636 C.ar      1 <0>        -0.0937
     15 F1          6.2695   -0.9672    5.7070 F         1 <0>        -0.1141
     16 F2          7.7832    0.7921    4.2587 F         1 <0>        -0.1118
     17 N2         -1.3761   -0.5125    0.0124 N.4       1 <0>        -0.6353
     18 H2          1.0039    1.9031    0.0027 H         1 <0>         0.1154
     19 H3         -0.5459    1.8868   -0.8726 H         1 <0>         0.0888
     20 H4         -0.5289    1.8773    0.9072 H         1 <0>         0.0810
     21 H5         -0.8587   -1.8226    2.0110 H         1 <0>         0.2001
     22 H6          4.3612    1.1722    1.3598 H         1 <0>         0.1555
     23 H7          6.6293    1.7400    2.1203 H         1 <0>         0.1627
     24 H8          3.8923   -1.4273    4.7379 H         1 <0>         0.1520
     25 H9         -1.8484   -0.1871    0.8426 H         1 <0>         0.4353
     26 H10        -1.8641   -0.1783   -0.8050 H         1 <0>         0.4447
     27 H11        -1.3624   -1.5214    0.0069 H         1 <0>         0.4369
@<TRIPOS>BOND
     1    1    2 1
     2    1   18 1
     3    1   19 1
     4    1   20 1
     5    2    3 1
     6    2    4 1
     7    2   17 1
     8    4    8 1
     9    4    5 2
    10    5    6 1
    11    5   21 1
    12    6    7 1
    13    7    8 2
    14    7    9 1
    15    9   14 ar
    16    9   10 ar
    17   10   11 ar
    18   10   22 1
    19   11   12 ar
    20   11   23 1
    21   12   13 ar
    22   12   16 1
    23   13   14 ar
    24   13   15 1
    25   14   24 1
    26   17   25 1
    27   17   26 1
    28   17   27 1
@<TRIPOS>MOLECULE
ZINC85633922
   24    25     0     0     0
SMALL
USER_CHARGES

@<TRIPOS>ATOM
      1 C1         -0.0167    1.3776    0.0096 C.ar      1 <0>        -0.1116
      2 C2          1.1840    2.0885    0.0020 C.ar      1 <0>        -0.0010
      3 C3          2.3968    1.3990   -0.0133 C.ar      1 <0>        -0.0495
      4 C4          2.4034    0.0181   -0.0208 C.ar      1 <0>        -0.0682
      5 C5          1.2102   -0.6827   -0.0136 C.ar      1 <0>        -0.0961
      6 C6          0.0021   -0.0041    0.0020 C.ar      1 <0>         0.1219
      7 F1         -1.1592   -0.6944    0.0094 F         1 <0>        -0.1173
      8 Br1         4.0467   -0.9173   -0.0415 Br        1 <0>        -0.0078
      9 C7          1.1711    3.5672    0.0095 C.2       1 <0>         0.1709
     10 N1          2.1880    4.4175   -0.0011 N.2       1 <0>        -0.4983
     11 C8          1.9914    5.7149    0.0078 C.2       1 <0>        -0.0151
     12 C9          0.7246    6.2081    0.0284 C.2       1 <0>        -0.1754
     13 S1         -0.2205    4.6897    0.0276 S.3       1 <0>         0.1158
     14 C10         3.1679    6.6566   -0.0042 C.3       1 <0>         0.0793
     15 N2          3.6454    6.8613    1.3698 N.4       1 <0>        -0.6352
     16 H1         -0.9584    1.9060    0.0260 H         1 <0>         0.1491
     17 H2          3.3290    1.9443   -0.0196 H         1 <0>         0.1530
     18 H3          1.2205   -1.7626   -0.0202 H         1 <0>         0.1598
     19 H4          0.3835    7.2328    0.0387 H         1 <0>         0.2137
     20 H5          3.9691    6.2294   -0.6074 H         1 <0>         0.1486
     21 H6          2.8635    7.6130   -0.4294 H         1 <0>         0.1496
     22 H7          2.9038    7.2567    1.9282 H         1 <0>         0.4340
     23 H8          3.9272    5.9760    1.7634 H         1 <0>         0.4386
     24 H9          4.4331    7.4918    1.3618 H         1 <0>         0.4413
@<TRIPOS>BOND
     1    1    6 ar
     2    1    2 ar
     3    1   16 1
     4    2    3 ar
     5    2    9 1
     6    3    4 ar
     7    3   17 1
     8    4    5 ar
     9    4    8 1
    10    5    6 ar
    11    5   18 1
    12    6    7 1
    13    9   13 1
    14    9   10 2
    15   10   11 1
    16   11   12 2
    17   11   14 1
    18   12   13 1
    19   12   19 1
    20   14   15 1
    21   14   20 1
    22   14   21 1
    23   15   22 1
    24   15   23 1
    25   15   24 1
@<TRIPOS>MOLECULE
ZINC52139979
   30    31     0     0     0
SMALL
USER_CHARGES

@<TRIPOS>ATOM
      1 C1          2.0152   -1.9926    2.0110 C.3       1 <0>        -0.1130
      2 C2          0.9786   -1.6816    0.9622 C.ar      1 <0>        -0.0424
      3 C3          1.0401   -2.2939   -0.2730 C.ar      1 <0>        -0.0895
      4 C4          0.0899   -2.0108   -1.2371 C.ar      1 <0>        -0.1156
      5 C5         -0.9295   -1.1107   -0.9699 C.ar      1 <0>         0.1014
      6 C6         -1.0012   -0.4911    0.2630 C.ar      1 <0>        -0.1176
      7 C7         -0.0481   -0.7786    1.2407 C.ar      1 <0>        -0.0164
      8 C8         -0.1219   -0.1240    2.5646 C.2       1 <0>         0.1812
      9 N1         -0.0069   -0.6554    3.7735 N.2       1 <0>        -0.4934
     10 C9         -0.0994    0.0832    4.8542 C.2       1 <0>        -0.0165
     11 C10        -0.3174    1.4207    4.7440 C.2       1 <0>        -0.1776
     12 S1         -0.3825    1.5989    2.9656 S.3       1 <0>         0.1021
     13 C11         0.0352   -0.5500    6.2150 C.3       1 <0>         0.0772
     14 N2         -1.2667   -1.0829    6.6381 N.4       1 <0>        -0.5088
     15 C12        -1.1355   -1.7001    7.9647 C.3       1 <0>        -0.0468
     16 F1         -1.8542   -0.8384   -1.9165 F         1 <0>        -0.1275
     17 H1          1.6405   -2.7744    2.6716 H         1 <0>         0.0816
     18 H2          2.9305   -2.3334    1.5272 H         1 <0>         0.0760
     19 H3          2.2242   -1.0947    2.5926 H         1 <0>         0.0638
     20 H4          1.8325   -2.9957   -0.4874 H         1 <0>         0.1479
     21 H5          0.1427   -2.4928   -2.2021 H         1 <0>         0.1493
     22 H6         -1.7954    0.2105    0.4710 H         1 <0>         0.1425
     23 H7         -0.4191    2.1688    5.5162 H         1 <0>         0.2109
     24 H8          0.7619   -1.3610    6.1681 H         1 <0>         0.1452
     25 H9          0.3718    0.1985    6.9324 H         1 <0>         0.1459
     26 H10        -1.9395   -0.3321    6.6815 H         1 <0>         0.4284
     27 H11        -0.7989   -0.9517    8.6820 H         1 <0>         0.1251
     28 H12        -2.1016   -2.0956    8.2786 H         1 <0>         0.1277
     29 H13        -0.4088   -2.5112    7.9177 H         1 <0>         0.1253
     30 H14        -1.5784   -1.7757    5.9741 H         1 <0>         0.4334
@<TRIPOS>BOND
     1    1    2 1
     2    1   17 1
     3    1   18 1
     4    1   19 1
     5    2    7 ar
     6    2    3 ar
     7    3    4 ar
     8    3   20 1
     9    4    5 ar
    10    4   21 1
    11    5    6 ar
    12    5   16 1
    13    6    7 ar
    14    6   22 1
    15    7    8 1
    16    8   12 1
    17    8    9 2
    18    9   10 1
    19   10   11 2
    20   10   13 1
    21   11   12 1
    22   11   23 1
    23   13   14 1
    24   13   24 1
    25   13   25 1
    26   14   15 1
    27   14   26 1
    28   14   30 1
    29   15   27 1
    30   15   28 1
    31   15   29 1
@<TRIPOS>MOLECULE
ZINC61798271
   27    28     0     0     0
SMALL
USER_CHARGES

@<TRIPOS>ATOM
      1 C1         -0.0167    1.3803    0.0096 C.ar      1 <0>        -0.0536
      2 C2          1.1678    2.0944    0.0022 C.ar      1 <0>        -0.1322
      3 C3          2.3789    1.4289   -0.0135 C.ar      1 <0>         0.1313
      4 C4          2.4042    0.0314   -0.0212 C.ar      1 <0>        -0.0485
      5 C5          1.2052   -0.6818   -0.0131 C.ar      1 <0>        -0.0355
      6 C6          0.0021   -0.0041    0.0020 C.ar      1 <0>        -0.0498
      7 Cl1        -1.4907   -0.8902    0.0121 Cl        1 <0>        -0.0416
      8 C7          3.6957   -0.6878   -0.0384 C.2       1 <0>         0.1520
      9 N1          3.9323   -1.9921   -0.0533 N.2       1 <0>        -0.5026
     10 C8          5.1578   -2.4621   -0.0675 C.2       1 <0>         0.0377
     11 C9          6.2123   -1.6044   -0.0671 C.2       1 <0>        -0.1997
     12 S1          5.3592   -0.0326   -0.0527 S.3       1 <0>         0.1040
     13 C10         5.3952   -3.9502   -0.0837 C.3       1 <0>        -0.0690
     14 C11         4.6674   -4.5957    1.0972 C.3       1 <0>        -0.0035
     15 N2          4.8989   -6.0462    1.0814 N.4       1 <0>        -0.6373
     16 F1          3.5353    2.1273   -0.0216 F         1 <0>        -0.1181
     17 H1         -0.9605    1.9050    0.0260 H         1 <0>         0.1564
     18 H2          1.1462    3.1741    0.0082 H         1 <0>         0.1608
     19 H3          1.2179   -1.7617   -0.0194 H         1 <0>         0.1536
     20 H4          7.2717   -1.8140   -0.0773 H         1 <0>         0.2046
     21 H5          5.0167   -4.3684   -1.0164 H         1 <0>         0.1024
     22 H6          6.4641   -4.1484   -0.0040 H         1 <0>         0.1029
     23 H7          5.0460   -4.1775    2.0299 H         1 <0>         0.1332
     24 H8          3.5985   -4.3975    1.0175 H         1 <0>         0.1419
     25 H9          4.5485   -6.4334    0.2180 H         1 <0>         0.4362
     26 H10         5.8883   -6.2298    1.1551 H         1 <0>         0.4347
     27 H11         4.4189   -6.4719    1.8601 H         1 <0>         0.4400
@<TRIPOS>BOND
     1    1    6 ar
     2    1    2 ar
     3    1   17 1
     4    2    3 ar
     5    2   18 1
     6    3    4 ar
     7    3   16 1
     8    4    5 ar
     9    4    8 1
    10    5    6 ar
    11    5   19 1
    12    6    7 1
    13    8   12 1
    14    8    9 2
    15    9   10 1
    16   10   11 2
    17   10   13 1
    18   11   12 1
    19   11   20 1
    20   13   14 1
    21   13   21 1
    22   13   22 1
    23   14   15 1
    24   14   23 1
    25   14   24 1
    26   15   25 1
    27   15   26 1
    28   15   27 1
@<TRIPOS>MOLECULE
ZINC40999631
   30    31     0     0     0
SMALL
USER_CHARGES

@<TRIPOS>ATOM
      1 C1         -0.0187    1.5258    0.0104 C.3       1 <0>        -0.1902
      2 C2          0.0021   -0.0041    0.0020 C.3       1 <0>        -0.0095
      3 N1          0.7126   -0.4907    1.1921 N.4       1 <0>        -0.5091
      4 C3          0.7325   -1.9595    1.1840 C.3       1 <0>         0.0779
      5 C4          1.4614   -2.4588    2.4049 C.2       1 <0>        -0.0110
      6 C5          0.7648   -2.8028    3.5203 C.2       1 <0>        -0.1763
      7 S1          2.0990   -3.3023    4.6016 S.3       1 <0>         0.1084
      8 C6          3.4353   -2.9991    3.4530 C.2       1 <0>         0.1740
      9 N2          2.7694   -2.5672    2.3911 N.2       1 <0>        -0.5001
     10 C7          4.8906   -3.1846    3.6363 C.ar      1 <0>        -0.0207
     11 C8          5.7718   -2.8772    2.5986 C.ar      1 <0>        -0.0447
     12 C9          7.1288   -3.0517    2.7737 C.ar      1 <0>        -0.1245
     13 C10         7.6189   -3.5315    3.9774 C.ar      1 <0>         0.1051
     14 C11         6.7481   -3.8391    5.0132 C.ar      1 <0>         0.0778
     15 C12         5.3879   -3.6622    4.8495 C.ar      1 <0>        -0.0954
     16 F1          7.2315   -4.3066    6.1849 F         1 <0>        -0.1140
     17 F2          8.9489   -3.7010    4.1432 F         1 <0>        -0.1124
     18 H1          1.0039    1.9031    0.0027 H         1 <0>         0.0808
     19 H2         -0.5459    1.8868   -0.8726 H         1 <0>         0.1084
     20 H3         -0.5289    1.8773    0.9072 H         1 <0>         0.0805
     21 H4         -1.0205   -0.3814    0.0098 H         1 <0>         0.1327
     22 H5          0.5123   -0.3556   -0.8948 H         1 <0>         0.1329
     23 H6          1.6592   -0.1414    1.1850 H         1 <0>         0.4310
     24 H7         -0.2901   -2.3368    1.1918 H         1 <0>         0.1465
     25 H8          1.2427   -2.3111    0.2873 H         1 <0>         0.1459
     26 H9         -0.2994   -2.7804    3.7031 H         1 <0>         0.2125
     27 H10         5.3916   -2.5034    1.6594 H         1 <0>         0.1534
     28 H11         7.8106   -2.8142    1.9706 H         1 <0>         0.1617
     29 H12         4.7105   -3.8973    5.6571 H         1 <0>         0.1522
     30 H13         0.2403   -0.1653    2.0223 H         1 <0>         0.4262
@<TRIPOS>BOND
     1    1    2 1
     2    1   18 1
     3    1   19 1
     4    1   20 1
     5    2    3 1
     6    2   21 1
     7    2   22 1
     8    3    4 1
     9    3   23 1
    10    3   30 1
    11    4    5 1
    12    4   24 1
    13    4   25 1
    14    5    9 1
    15    5    6 2
    16    6    7 1
    17    6   26 1
    18    7    8 1
    19    8    9 2
    20    8   10 1
    21   10   15 ar
    22   10   11 ar
    23   11   12 ar
    24   11   27 1
    25   12   13 ar
    26   12   28 1
    27   13   14 ar
    28   13   17 1
    29   14   15 ar
    30   14   16 1
    31   15   29 1
@<TRIPOS>MOLECULE
ZINC76784719
   30    31     0     0     0
SMALL
USER_CHARGES

@<TRIPOS>ATOM
      1 C1         -0.0187    1.5258    0.0104 C.3       1 <0>        -0.1754
      2 C2          0.0021   -0.0041    0.0020 C.3       1 <0>         0.1094
      3 H1          0.5123   -0.3556   -0.8948 H         1 <0>         0.1586
      4 C3          0.7309   -0.5033    1.2229 C.2       1 <0>         0.0385
      5 C4          0.1263   -1.3835    2.0645 C.2       1 <0>        -0.2557
      6 S1          1.4142   -1.6113    3.2844 S.3       1 <0>         0.1198
      7 C5          2.6137   -0.5124    2.5423 C.2       1 <0>         0.1824
      8 N1          1.9522   -0.0933    1.4727 N.2       1 <0>        -0.4923
      9 C6          3.9781   -0.1680    2.9965 C.ar      1 <0>        -0.0104
     10 C7          4.7554    0.7289    2.2626 C.ar      1 <0>        -0.0626
     11 C8          6.0277    1.0460    2.6918 C.ar      1 <0>        -0.0687
     12 C9          6.5334    0.4765    3.8468 C.ar      1 <0>        -0.1490
     13 C10         5.7680   -0.4138    4.5787 C.ar      1 <0>        -0.0649
     14 C11         4.4917   -0.7341    4.1640 C.ar      1 <0>        -0.0852
     15 C12         7.9242    0.8270    4.3094 C.3       1 <0>         0.5058
     16 F1          7.8670    1.9366    5.1596 F         1 <0>        -0.1700
     17 F2          8.4746   -0.2597    4.9973 F         1 <0>        -0.1712
     18 F3          8.7220    1.1296    3.2008 F         1 <0>        -0.1714
     19 N2         -1.3761   -0.5125    0.0124 N.4       1 <0>        -0.6352
     20 H2          1.0039    1.9031    0.0027 H         1 <0>         0.1152
     21 H3         -0.5459    1.8868   -0.8726 H         1 <0>         0.0890
     22 H4         -0.5289    1.8773    0.9072 H         1 <0>         0.0810
     23 H5         -0.8587   -1.8231    2.0112 H         1 <0>         0.2002
     24 H6          4.3621    1.1736    1.3604 H         1 <0>         0.1497
     25 H7          6.6304    1.7400    2.1247 H         1 <0>         0.1515
     26 H8          6.1687   -0.8552    5.4793 H         1 <0>         0.1525
     27 H9          3.8933   -1.4253    4.7390 H         1 <0>         0.1415
     28 H10        -1.8641   -0.1783   -0.8050 H         1 <0>         0.4447
     29 H11        -1.3624   -1.5214    0.0069 H         1 <0>         0.4369
     30 H12        -1.8484   -0.1871    0.8426 H         1 <0>         0.4352
@<TRIPOS>BOND
     1    1    2 1
     2    1   20 1
     3    1   21 1
     4    1   22 1
     5    2    3 1
     6    2    4 1
     7    2   19 1
     8    4    8 1
     9    4    5 2
    10    5    6 1
    11    5   23 1
    12    6    7 1
    13    7    8 2
    14    7    9 1
    15    9   14 ar
    16    9   10 ar
    17   10   11 ar
    18   10   24 1
    19   11   12 ar
    20   11   25 1
    21   12   13 ar
    22   12   15 1
    23   13   14 ar
    24   13   26 1
    25   14   27 1
    26   15   16 1
    27   15   17 1
    28   15   18 1
    29   19   28 1
    30   19   29 1
    31   19   30 1
@<TRIPOS>MOLECULE
ZINC76784721
   30    31     0     0     0
SMALL
USER_CHARGES

@<TRIPOS>ATOM
      1 C1         -0.0187    1.5258    0.0104 C.3       1 <0>        -0.1778
      2 C2          0.0021   -0.0041    0.0020 C.3       1 <0>         0.1172
      3 H1          0.5123   -0.3556   -0.8948 H         1 <0>         0.1541
      4 C3         -1.4117   -0.5257    0.0127 C.2       1 <0>        -0.0098
      5 C4         -1.8247   -1.3934   -0.9491 C.2       1 <0>        -0.1705
      6 S1         -3.5212   -1.6577   -0.4485 S.3       1 <0>         0.1126
      7 C5         -3.4951   -0.5866    0.9830 C.2       1 <0>         0.1680
      8 N1         -2.2447   -0.1474    0.9534 N.2       1 <0>        -0.5055
      9 C6         -4.5757   -0.2782    1.9441 C.ar      1 <0>        -0.0058
     10 C7         -4.3425    0.6015    3.0020 C.ar      1 <0>        -0.0676
     11 C8         -5.3549    0.8850    3.8954 C.ar      1 <0>        -0.0687
     12 C9         -6.5990    0.2989    3.7444 C.ar      1 <0>        -0.1509
     13 C10        -6.8366   -0.5744    2.6980 C.ar      1 <0>        -0.0631
     14 C11        -5.8346   -0.8612    1.7939 C.ar      1 <0>        -0.0867
     15 C12        -7.7001    0.6128    4.7242 C.3       1 <0>         0.5056
     16 F1         -8.4251    1.7205    4.2719 F         1 <0>        -0.1698
     17 F2         -8.5540   -0.4898    4.8351 F         1 <0>        -0.1711
     18 F3         -7.1434    0.8992    5.9753 F         1 <0>        -0.1720
     19 N2          0.7126   -0.4907    1.1921 N.4       1 <0>        -0.6343
     20 H2          1.0039    1.9031    0.0027 H         1 <0>         0.0872
     21 H3         -0.5459    1.8868   -0.8726 H         1 <0>         0.1041
     22 H4         -0.5289    1.8773    0.9072 H         1 <0>         0.0900
     23 H5         -1.2795   -1.8079   -1.7842 H         1 <0>         0.2128
     24 H6         -3.3715    1.0590    3.1214 H         1 <0>         0.1465
     25 H7         -5.1758    1.5656    4.7145 H         1 <0>         0.1503
     26 H8         -7.8099   -1.0289    2.5858 H         1 <0>         0.1523
     27 H9         -6.0228   -1.5391    0.9744 H         1 <0>         0.1418
     28 H10         0.2403   -0.1653    2.0223 H         1 <0>         0.4381
     29 H11         0.7262   -1.4996    1.1866 H         1 <0>         0.4349
     30 H12         1.6592   -0.1415    1.1850 H         1 <0>         0.4381
@<TRIPOS>BOND
     1    1    2 1
     2    1   20 1
     3    1   21 1
     4    1   22 1
     5    2    3 1
     6    2    4 1
     7    2   19 1
     8    4    8 1
     9    4    5 2
    10    5    6 1
    11    5   23 1
    12    6    7 1
    13    7    8 2
    14    7    9 1
    15    9   14 ar
    16    9   10 ar
    17   10   11 ar
    18   10   24 1
    19   11   12 ar
    20   11   25 1
    21   12   13 ar
    22   12   15 1
    23   13   14 ar
    24   13   26 1
    25   14   27 1
    26   15   16 1
    27   15   17 1
    28   15   18 1
    29   19   28 1
    30   19   29 1
    31   19   30 1
@<TRIPOS>MOLECULE
ZINC62606392
   20    21     0     0     0
SMALL
USER_CHARGES

@<TRIPOS>ATOM
      1 C1         -0.0167    1.3792    0.0096 C.ar      1 <0>        -0.1136
      2 C2          1.1661    2.0896    0.0021 C.ar      1 <0>        -0.0639
      3 C3          2.3850    1.4110   -0.0131 C.ar      1 <0>        -0.0396
      4 C4          2.3995    0.0138   -0.0207 C.ar      1 <0>         0.1544
      5 C5          1.2063   -0.6860   -0.0131 C.ar      1 <0>        -0.0788
      6 C6          0.0021   -0.0041    0.0020 C.ar      1 <0>        -0.0633
      7 Cl1         1.2194   -2.4219   -0.0230 Cl        1 <0>        -0.0357
      8 F1          3.5752   -0.6516   -0.0359 F         1 <0>        -0.0990
      9 C7          3.6558    2.1670   -0.0217 C.2       1 <0>         0.0935
     10 N1          4.8927    1.7092   -0.0414 N.2       1 <0>        -0.4204
     11 C8          5.8962    2.5874   -0.0459 C.2       1 <0>        -0.0585
     12 C9          5.5930    3.9374   -0.0297 C.2       1 <0>        -0.2146
     13 S1          3.9102    3.9323   -0.0159 S.3       1 <0>         0.1867
     14 C10         7.2884    2.1330   -0.0671 C.2       1 <0>         0.4001
     15 O1          7.5391    0.9457   -0.0812 O.2       1 <0>        -0.4310
     16 H1         -0.9601    1.9047    0.0260 H         1 <0>         0.1510
     17 H2          1.1484    3.1694    0.0077 H         1 <0>         0.1441
     18 H3         -0.9272   -0.5543    0.0083 H         1 <0>         0.1512
     19 H4          6.2665    4.7816   -0.0304 H         1 <0>         0.2138
     20 H5          8.0920    2.8546   -0.0701 H         1 <0>         0.1234
@<TRIPOS>BOND
     1    1    6 ar
     2    1    2 ar
     3    1   16 1
     4    2    3 ar
     5    2   17 1
     6    3    4 ar
     7    3    9 1
     8    4    5 ar
     9    4    8 1
    10    5    6 ar
    11    5    7 1
    12    6   18 1
    13    9   13 1
    14    9   10 2
    15   10   11 1
    16   11   12 2
    17   11   14 1
    18   12   13 1
    19   12   19 1
    20   14   15 2
    21   14   20 1
@<TRIPOS>MOLECULE
ZINC62938296
   29    31     0     0     0
SMALL
USER_CHARGES

@<TRIPOS>ATOM
      1 C1         -0.0167    1.3769    0.0096 C.ar      1 <0>        -0.1164
      2 C2          1.1659    2.0893    0.0021 C.ar      1 <0>        -0.0639
      3 C3          2.3894    1.4155   -0.0136 C.ar      1 <0>        -0.0278
      4 C4          2.4131    0.0212   -0.0212 C.ar      1 <0>        -0.0385
      5 C5          1.2172   -0.6888   -0.0132 C.ar      1 <0>        -0.0261
      6 C6          0.0021   -0.0041    0.0020 C.ar      1 <0>        -0.0754
      7 C7          1.2339   -2.1724   -0.0212 C.2       1 <0>         0.0987
      8 C8          0.0582   -2.8774   -0.0185 C.2       1 <0>        -0.1881
      9 S1          0.6782   -4.5546   -0.0309 S.3       1 <0>         0.0396
     10 C9          2.4189   -4.1481   -0.0383 C.2       1 <0>         0.1590
     11 N1          2.3805   -2.8252   -0.0366 N.2       1 <0>        -0.4880
     12 C10         3.5905   -5.0503   -0.0492 C.ar      1 <0>        -0.0061
     13 C11         4.8821   -4.5214   -0.0472 C.ar      1 <0>        -0.0652
     14 C12         5.9714   -5.3679   -0.0569 C.ar      1 <0>        -0.1050
     15 C13         5.7861   -6.7389   -0.0690 C.ar      1 <0>        -0.0888
     16 C14         4.5078   -7.2705   -0.0711 C.ar      1 <0>        -0.0343
     17 C15         3.4093   -6.4335   -0.0556 C.ar      1 <0>        -0.0841
     18 Cl1         4.2853   -8.9921   -0.0869 Cl        1 <0>        -0.0564
     19 C16         3.6159    2.1545   -0.0223 C.1       1 <0>         0.2513
     20 N2          4.5889    2.7408   -0.0292 N.1       1 <0>        -0.4094
     21 H1         -0.9604    1.9017    0.0259 H         1 <0>         0.1401
     22 H2          1.1450    3.1690    0.0081 H         1 <0>         0.1363
     23 H3          3.3561   -0.5050   -0.0337 H         1 <0>         0.1426
     24 H4         -0.9267   -0.5553    0.0082 H         1 <0>         0.1337
     25 H5         -0.9605   -2.5190   -0.0107 H         1 <0>         0.2052
     26 H6          5.0286   -3.4515   -0.0385 H         1 <0>         0.1431
     27 H7          6.9711   -4.9594   -0.0554 H         1 <0>         0.1435
     28 H8          6.6423   -7.3972   -0.0773 H         1 <0>         0.1415
     29 H9          2.4123   -6.8489   -0.0530 H         1 <0>         0.1386
@<TRIPOS>BOND
     1    1    6 ar
     2    1    2 ar
     3    1   21 1
     4    2    3 ar
     5    2   22 1
     6    3    4 ar
     7    3   19 1
     8    4    5 ar
     9    4   23 1
    10    5    6 ar
    11    5    7 1
    12    6   24 1
    13    7   11 1
    14    7    8 2
    15    8    9 1
    16    8   25 1
    17    9   10 1
    18   10   11 2
    19   10   12 1
    20   12   17 ar
    21   12   13 ar
    22   13   14 ar
    23   13   26 1
    24   14   15 ar
    25   14   27 1
    26   15   16 ar
    27   15   28 1
    28   16   17 ar
    29   16   18 1
    30   17   29 1
    31   19   20 3
@<TRIPOS>MOLECULE
ZINC40419234
   39    40     0     0     0
SMALL
USER_CHARGES

@<TRIPOS>ATOM
      1 C1         -0.0187    1.5258    0.0104 C.3       1 <0>        -0.1489
      2 C2          0.0021   -0.0041    0.0020 C.3       1 <0>        -0.0961
      3 C3         -1.4117   -0.5257    0.0127 C.ar      1 <0>        -0.0409
      4 C4         -2.0484   -0.7651    1.2175 C.ar      1 <0>        -0.1151
      5 C5         -3.3429   -1.2422    1.2342 C.ar      1 <0>        -0.0785
      6 C6         -4.0099   -1.4833    0.0324 C.ar      1 <0>        -0.0508
      7 C7         -3.3621   -1.2397   -1.1793 C.ar      1 <0>        -0.0580
      8 C8         -2.0693   -0.7576   -1.1822 C.ar      1 <0>        -0.1206
      9 C9         -5.3972   -1.9951    0.0429 C.2       1 <0>         0.1900
     10 N1         -6.1928   -2.2902   -0.9755 N.2       1 <0>        -0.5113
     11 C10        -7.4104   -2.7391   -0.7811 C.2       1 <0>        -0.0062
     12 C11        -7.8758   -2.9090    0.4850 C.2       1 <0>        -0.1864
     13 S1         -6.4505   -2.3901    1.4327 S.3       1 <0>         0.0886
     14 C12        -8.2916   -3.0654   -1.9593 C.3       1 <0>         0.0742
     15 N2         -8.9664   -1.8443   -2.4191 N.4       1 <0>        -0.5065
     16 C13        -9.8254   -2.1624   -3.5675 C.3       1 <0>         0.0243
     17 C14       -10.6224   -0.9193   -3.9681 C.3       1 <0>        -0.1841
     18 C15        -8.9575   -2.6128   -4.7443 C.3       1 <0>        -0.1854
     19 H1          1.0039    1.9031    0.0027 H         1 <0>         0.0654
     20 H2         -0.5459    1.8868   -0.8726 H         1 <0>         0.0570
     21 H3         -0.5289    1.8773    0.9072 H         1 <0>         0.0577
     22 H4          0.5123   -0.3556   -0.8948 H         1 <0>         0.0796
     23 H5          0.5293   -0.3651    0.8851 H         1 <0>         0.0801
     24 H6         -1.5309   -0.5785    2.1468 H         1 <0>         0.1371
     25 H7         -3.8387   -1.4291    2.1753 H         1 <0>         0.1286
     26 H8         -3.8728   -1.4247   -2.1128 H         1 <0>         0.1343
     27 H9         -1.5684   -0.5645   -2.1193 H         1 <0>         0.1354
     28 H10        -8.8380   -3.2629    0.8244 H         1 <0>         0.2094
     29 H11        -7.6825   -3.4703   -2.7675 H         1 <0>         0.1459
     30 H12        -9.0374   -3.8027   -1.6620 H         1 <0>         0.1451
     31 H13        -9.5303   -1.4696   -1.6710 H         1 <0>         0.4259
     32 H14       -10.5133   -2.9631   -3.2960 H         1 <0>         0.1402
     33 H15        -9.9345   -0.1186   -4.2396 H         1 <0>         0.0813
     34 H16       -11.2598   -1.1553   -4.8202 H         1 <0>         0.1078
     35 H17       -11.2407   -0.5984   -3.1297 H         1 <0>         0.0815
     36 H18        -9.5949   -2.8489   -5.5964 H         1 <0>         0.1066
     37 H19        -8.2696   -1.8121   -5.0158 H         1 <0>         0.0824
     38 H20        -8.3897   -3.4984   -4.4589 H         1 <0>         0.0818
     39 H21        -8.2761   -1.1618   -2.6943 H         1 <0>         0.4290
@<TRIPOS>BOND
     1    1    2 1
     2    1   19 1
     3    1   20 1
     4    1   21 1
     5    2    3 1
     6    2   22 1
     7    2   23 1
     8    3    8 ar
     9    3    4 ar
    10    4    5 ar
    11    4   24 1
    12    5    6 ar
    13    5   25 1
    14    6    7 ar
    15    6    9 1
    16    7    8 ar
    17    7   26 1
    18    8   27 1
    19    9   13 1
    20    9   10 2
    21   10   11 1
    22   11   12 2
    23   11   14 1
    24   12   13 1
    25   12   28 1
    26   14   15 1
    27   14   29 1
    28   14   30 1
    29   15   16 1
    30   15   31 1
    31   15   39 1
    32   16   17 1
    33   16   18 1
    34   16   32 1
    35   17   33 1
    36   17   34 1
    37   17   35 1
    38   18   36 1
    39   18   37 1
    40   18   38 1
@<TRIPOS>MOLECULE
ZINC40419225
   42    43     0     0     0
SMALL
USER_CHARGES

@<TRIPOS>ATOM
      1 C1         -0.0187    1.5258    0.0104 C.3       1 <0>        -0.1475
      2 C2          0.0021   -0.0041    0.0020 C.3       1 <0>        -0.0656
      3 C3          0.7421   -0.5109    1.2415 C.3       1 <0>        -0.1479
      4 C4         -1.4117   -0.5257    0.0127 C.ar      1 <0>        -0.0352
      5 C5         -2.2573   -0.2021    1.0588 C.ar      1 <0>        -0.1122
      6 C6         -3.5530   -0.6760    1.0744 C.ar      1 <0>        -0.0790
      7 C7         -4.0099   -1.4834    0.0319 C.ar      1 <0>        -0.0505
      8 C8         -3.1519   -1.8061   -1.0203 C.ar      1 <0>        -0.0578
      9 C9         -1.8602   -1.3214   -1.0265 C.ar      1 <0>        -0.1205
     10 C10        -5.3971   -1.9952    0.0424 C.2       1 <0>         0.1904
     11 N1         -6.0146   -2.7703   -0.8380 N.2       1 <0>        -0.5114
     12 C11        -7.2644   -3.1325   -0.6686 C.2       1 <0>        -0.0061
     13 C12        -7.9494   -2.7107    0.4275 C.2       1 <0>        -0.1866
     14 S1         -6.6911   -1.7418    1.2501 S.3       1 <0>         0.0882
     15 C13        -7.9396   -4.0140   -1.6874 C.3       1 <0>         0.0742
     16 N2         -8.4748   -3.1842   -2.7751 N.4       1 <0>        -0.5065
     17 C14        -9.1329   -4.0435   -3.7682 C.3       1 <0>         0.0243
     18 C15        -9.7978   -3.1723   -4.8358 C.3       1 <0>        -0.1842
     19 C16        -8.0922   -4.9516   -4.4265 C.3       1 <0>        -0.1854
     20 H1          1.0039    1.9031    0.0027 H         1 <0>         0.0653
     21 H2         -0.5459    1.8868   -0.8726 H         1 <0>         0.0575
     22 H3         -0.5289    1.8773    0.9072 H         1 <0>         0.0590
     23 H4          0.5123   -0.3556   -0.8948 H         1 <0>         0.0843
     24 H5          0.2319   -0.1594    2.1383 H         1 <0>         0.0590
     25 H6          0.7568   -1.6008    1.2356 H         1 <0>         0.0580
     26 H7          1.7647   -0.1336    1.2338 H         1 <0>         0.0654
     27 H8         -1.9024    0.4225    1.8652 H         1 <0>         0.1366
     28 H9         -4.2120   -0.4230    1.8918 H         1 <0>         0.1283
     29 H10        -3.4994   -2.4308   -1.8298 H         1 <0>         0.1342
     30 H11        -1.1965   -1.5667   -1.8424 H         1 <0>         0.1352
     31 H12        -8.9694   -2.9091    0.7220 H         1 <0>         0.2094
     32 H13        -7.2158   -4.7213   -2.0925 H         1 <0>         0.1458
     33 H14        -8.7545   -4.5601   -1.2123 H         1 <0>         0.1450
     34 H15        -9.1447   -2.5295   -2.4001 H         1 <0>         0.4259
     35 H16        -9.8890   -4.6549   -3.2756 H         1 <0>         0.1402
     36 H17        -9.0417   -2.5609   -5.3284 H         1 <0>         0.0813
     37 H18       -10.2861   -3.8099   -5.5728 H         1 <0>         0.1078
     38 H19       -10.5392   -2.5254   -4.3669 H         1 <0>         0.0815
     39 H20        -7.6186   -5.5723   -3.6659 H         1 <0>         0.0818
     40 H21        -8.5806   -5.5893   -5.1634 H         1 <0>         0.1066
     41 H22        -7.3361   -4.3402   -4.9191 H         1 <0>         0.0824
     42 H23        -7.7204   -2.6787   -3.2149 H         1 <0>         0.4290
@<TRIPOS>BOND
     1    1    2 1
     2    1   20 1
     3    1   21 1
     4    1   22 1
     5    2    3 1
     6    2    4 1
     7    2   23 1
     8    3   24 1
     9    3   25 1
    10    3   26 1
    11    4    9 ar
    12    4    5 ar
    13    5    6 ar
    14    5   27 1
    15    6    7 ar
    16    6   28 1
    17    7    8 ar
    18    7   10 1
    19    8    9 ar
    20    8   29 1
    21    9   30 1
    22   10   14 1
    23   10   11 2
    24   11   12 1
    25   12   13 2
    26   12   15 1
    27   13   14 1
    28   13   31 1
    29   15   16 1
    30   15   32 1
    31   15   33 1
    32   16   17 1
    33   16   34 1
    34   16   42 1
    35   17   18 1
    36   17   19 1
    37   17   35 1
    38   18   36 1
    39   18   37 1
    40   18   38 1
    41   19   39 1
    42   19   40 1
    43   19   41 1
@<TRIPOS>MOLECULE
ZINC41010108
   39    41     0     0     0
SMALL
USER_CHARGES

@<TRIPOS>ATOM
      1 C1         -0.0187    1.5258    0.0104 C.3       1 <0>        -0.1842
      2 C2          0.0021   -0.0041    0.0020 C.3       1 <0>         0.0244
      3 C3          0.7421   -0.5109    1.2415 C.3       1 <0>        -0.1855
      4 N1         -1.3761   -0.5125    0.0124 N.4       1 <0>        -0.5066
      5 C4         -1.3591   -1.9758   -0.1163 C.3       1 <0>         0.0741
      6 C5         -2.7729   -2.4974   -0.1056 C.2       1 <0>        -0.0064
      7 C6         -3.4213   -2.7316   -1.2776 C.2       1 <0>        -0.1849
      8 S1         -4.9989   -3.3161   -0.6709 S.3       1 <0>         0.0886
      9 C7         -4.6237   -3.1851    1.0724 C.2       1 <0>         0.1870
     10 N2         -3.3785   -2.7314    1.0347 N.2       1 <0>        -0.5083
     11 C8         -5.4716   -3.5024    2.2409 C.ar      1 <0>        -0.0379
     12 C9         -4.9673   -3.3152    3.5402 C.ar      1 <0>        -0.0805
     13 C10        -5.7263   -3.5992    4.6291 C.ar      1 <0>        -0.0968
     14 C11        -7.0356   -4.0876    4.4663 C.ar      1 <0>        -0.0308
     15 C12        -7.8403   -4.3886    5.5779 C.ar      1 <0>        -0.1121
     16 C13        -9.1036   -4.8594    5.3889 C.ar      1 <0>        -0.0956
     17 C14        -9.6147   -5.0493    4.1064 C.ar      1 <0>        -0.1086
     18 C15        -8.8653   -4.7689    3.0056 C.ar      1 <0>        -0.1004
     19 C16        -7.5556   -4.2802    3.1612 C.ar      1 <0>        -0.0577
     20 C17        -6.7580   -3.9761    2.0477 C.ar      1 <0>        -0.0532
     21 H1          1.0039    1.9031    0.0027 H         1 <0>         0.1078
     22 H2         -0.5459    1.8868   -0.8726 H         1 <0>         0.0815
     23 H3         -0.5289    1.8773    0.9072 H         1 <0>         0.0814
     24 H4          0.5123   -0.3556   -0.8948 H         1 <0>         0.1402
     25 H5          0.2319   -0.1594    2.1383 H         1 <0>         0.0825
     26 H6          0.7568   -1.6008    1.2356 H         1 <0>         0.0818
     27 H7          1.7647   -0.1336    1.2338 H         1 <0>         0.1065
     28 H8         -1.8225   -0.2564    0.8803 H         1 <0>         0.4291
     29 H9         -0.8769   -2.2525   -1.0538 H         1 <0>         0.1452
     30 H10        -0.8062   -2.4075    0.7180 H         1 <0>         0.1461
     31 H11        -3.0787   -2.6006   -2.2934 H         1 <0>         0.2098
     32 H12        -3.9630   -2.9409    3.6734 H         1 <0>         0.1340
     33 H13        -5.3249   -3.4505    5.6206 H         1 <0>         0.1389
     34 H14        -7.4582   -4.2473    6.5781 H         1 <0>         0.1346
     35 H15        -9.7190   -5.0896    6.2461 H         1 <0>         0.1316
     36 H16       -10.6199   -5.4248    3.9843 H         1 <0>         0.1317
     37 H17        -9.2739   -4.9212    2.0176 H         1 <0>         0.1331
     38 H18        -7.1428   -4.1146    1.0481 H         1 <0>         0.1333
     39 H19        -1.8879   -0.1129   -0.7598 H         1 <0>         0.4259
@<TRIPOS>BOND
     1    1    2 1
     2    1   21 1
     3    1   22 1
     4    1   23 1
     5    2    3 1
     6    2    4 1
     7    2   24 1
     8    3   25 1
     9    3   26 1
    10    3   27 1
    11    4    5 1
    12    4   28 1
    13    4   39 1
    14    5    6 1
    15    5   29 1
    16    5   30 1
    17    6   10 1
    18    6    7 2
    19    7    8 1
    20    7   31 1
    21    8    9 1
    22    9   10 2
    23    9   11 1
    24   11   20 ar
    25   11   12 ar
    26   12   13 ar
    27   12   32 1
    28   13   14 ar
    29   13   33 1
    30   14   19 ar
    31   14   15 ar
    32   15   16 ar
    33   15   34 1
    34   16   17 ar
    35   16   35 1
    36   17   18 ar
    37   17   36 1
    38   18   19 ar
    39   18   37 1
    40   19   20 ar
    41   20   38 1
@<TRIPOS>MOLECULE
ZINC41010126
   45    46     0     0     0
SMALL
USER_CHARGES

@<TRIPOS>ATOM
      1 C1         -0.0187    1.5258    0.0104 C.3       1 <0>        -0.1856
      2 C2          0.0021   -0.0041    0.0020 C.3       1 <0>         0.0239
      3 C3          0.7421   -0.5109    1.2415 C.3       1 <0>        -0.1841
      4 N1         -1.3761   -0.5125    0.0124 N.4       1 <0>        -0.5062
      5 C4         -2.0500   -0.1262   -1.2343 C.3       1 <0>         0.0748
      6 C5         -3.4638   -0.6478   -1.2236 C.2       1 <0>        -0.0063
      7 C6         -4.4822    0.1535   -0.8119 C.2       1 <0>        -0.1868
      8 S1         -5.8726   -0.9545   -1.0056 S.3       1 <0>         0.0880
      9 C7         -4.9483   -2.3598   -1.6120 C.2       1 <0>         0.1908
     10 N2         -3.7148   -1.8743   -1.6168 N.2       1 <0>        -0.5118
     11 C8         -5.4307   -3.7006   -2.0070 C.ar      1 <0>        -0.0509
     12 C9         -4.5279   -4.6667   -2.4532 C.ar      1 <0>        -0.0583
     13 C10        -4.9844   -5.9158   -2.8204 C.ar      1 <0>        -0.1182
     14 C11        -6.3340   -6.2114   -2.7473 C.ar      1 <0>        -0.0290
     15 C12        -7.2342   -5.2579   -2.3063 C.ar      1 <0>        -0.1187
     16 C13        -6.7899   -4.0072   -1.9298 C.ar      1 <0>        -0.0786
     17 C14        -6.8256   -7.5777   -3.1505 C.3       1 <0>        -0.0372
     18 C15        -6.1645   -8.6385   -2.2680 C.3       1 <0>        -0.1412
     19 C16        -8.3443   -7.6448   -2.9776 C.3       1 <0>        -0.1499
     20 C17        -6.4670   -7.8371   -4.6151 C.3       1 <0>        -0.1418
     21 H1          1.0039    1.9031    0.0027 H         1 <0>         0.1072
     22 H2         -0.5459    1.8868   -0.8726 H         1 <0>         0.0814
     23 H3         -0.5289    1.8773    0.9072 H         1 <0>         0.0822
     24 H4          0.5123   -0.3556   -0.8948 H         1 <0>         0.1404
     25 H5          0.2319   -0.1594    2.1383 H         1 <0>         0.0812
     26 H6          0.7568   -1.6008    1.2356 H         1 <0>         0.0817
     27 H7          1.7647   -0.1336    1.2338 H         1 <0>         0.1078
     28 H8         -1.3629   -1.5185    0.0898 H         1 <0>         0.4310
     29 H9         -2.0643    0.9605   -1.3179 H         1 <0>         0.1457
     30 H10        -1.5132   -0.5489   -2.0836 H         1 <0>         0.1444
     31 H11        -4.4580    1.1756   -0.4640 H         1 <0>         0.2091
     32 H12        -3.4742   -4.4369   -2.5113 H         1 <0>         0.1338
     33 H13        -4.2867   -6.6644   -3.1658 H         1 <0>         0.1347
     34 H14        -8.2865   -5.4948   -2.2519 H         1 <0>         0.1417
     35 H15        -7.4930   -3.2654   -1.5808 H         1 <0>         0.1280
     36 H16        -6.4200   -8.4537   -1.2246 H         1 <0>         0.0582
     37 H17        -6.5201   -9.6267   -2.5595 H         1 <0>         0.0656
     38 H18        -5.0826   -8.5907   -2.3911 H         1 <0>         0.0584
     39 H19        -8.8153   -6.8891   -3.6063 H         1 <0>         0.0612
     40 H20        -8.6999   -8.6330   -3.2692 H         1 <0>         0.0653
     41 H21        -8.5998   -7.4600   -1.9342 H         1 <0>         0.0610
     42 H22        -5.3851   -7.7894   -4.7382 H         1 <0>         0.0586
     43 H23        -6.8226   -8.8254   -4.9066 H         1 <0>         0.0657
     44 H24        -6.9380   -7.0815   -5.2438 H         1 <0>         0.0588
     45 H25        -1.8730   -0.1212    0.7986 H         1 <0>         0.4240
@<TRIPOS>BOND
     1    1    2 1
     2    1   21 1
     3    1   22 1
     4    1   23 1
     5    2    3 1
     6    2    4 1
     7    2   24 1
     8    3   25 1
     9    3   26 1
    10    3   27 1
    11    4    5 1
    12    4   28 1
    13    4   45 1
    14    5    6 1
    15    5   29 1
    16    5   30 1
    17    6   10 1
    18    6    7 2
    19    7    8 1
    20    7   31 1
    21    8    9 1
    22    9   10 2
    23    9   11 1
    24   11   16 ar
    25   11   12 ar
    26   12   13 ar
    27   12   32 1
    28   13   14 ar
    29   13   33 1
    30   14   15 ar
    31   14   17 1
    32   15   16 ar
    33   15   34 1
    34   16   35 1
    35   17   18 1
    36   17   19 1
    37   17   20 1
    38   18   36 1
    39   18   37 1
    40   18   38 1
    41   19   39 1
    42   19   40 1
    43   19   41 1
    44   20   42 1
    45   20   43 1
    46   20   44 1
@<TRIPOS>MOLECULE
ZINC80801921
   30    31     0     0     0
SMALL
USER_CHARGES

@<TRIPOS>ATOM
      1 C1         -0.0187    1.5258    0.0104 C.3       1 <0>        -0.1802
      2 C2          0.0021   -0.0041    0.0020 C.3       1 <0>         0.1158
      3 H1          0.5123   -0.3556   -0.8948 H         1 <0>         0.1513
      4 C3         -1.4117   -0.5257    0.0127 C.2       1 <0>        -0.0007
      5 C4         -2.0952   -0.6636   -1.1540 C.2       1 <0>        -0.1826
      6 S1         -3.6547   -1.2975   -0.5500 S.3       1 <0>         0.1436
      7 C5         -3.2272   -1.3095    1.1860 C.2       1 <0>         0.1625
      8 N1         -1.9832   -0.8527    1.1482 N.2       1 <0>        -0.5261
      9 C6         -4.0399   -1.7228    2.3496 C.ar      1 <0>        -0.0548
     10 C7         -3.5092   -1.6463    3.6380 C.ar      1 <0>        -0.0352
     11 C8         -4.2733   -2.0338    4.7204 C.ar      1 <0>        -0.0499
     12 C9         -5.5642   -2.4983    4.5306 C.ar      1 <0>        -0.0492
     13 C10        -6.0971   -2.5770    3.2572 C.ar      1 <0>        -0.1308
     14 C11        -5.3452   -2.1864    2.1649 C.ar      1 <0>         0.1345
     15 F1         -5.8687   -2.2584    0.9216 F         1 <0>        -0.1174
     16 Cl1        -3.6143   -1.9391    6.3237 Cl        1 <0>        -0.0379
     17 N2          0.7126   -0.4907    1.1921 N.4       1 <0>        -0.5011
     18 C12         2.1220   -0.0825    1.1220 C.3       1 <0>        -0.0522
     19 H2          1.0039    1.9031    0.0027 H         1 <0>         0.0903
     20 H3         -0.5459    1.8868   -0.8726 H         1 <0>         0.1066
     21 H4         -0.5289    1.8773    0.9072 H         1 <0>         0.0841
     22 H5         -1.7831   -0.4498   -2.1656 H         1 <0>         0.2112
     23 H6         -2.5025   -1.2850    3.7879 H         1 <0>         0.1522
     24 H7         -6.1572   -2.8007    5.3811 H         1 <0>         0.1581
     25 H8         -7.1044   -2.9401    3.1160 H         1 <0>         0.1625
     26 H9          0.2896   -0.0986    2.0201 H         1 <0>         0.4345
     27 H10         2.6492   -0.4436    2.0051 H         1 <0>         0.1288
     28 H11         2.5788   -0.5061    0.2276 H         1 <0>         0.1245
     29 H12         2.1837    1.0050    1.0814 H         1 <0>         0.1258
     30 H13         0.6554   -1.4974    1.2298 H         1 <0>         0.4316
@<TRIPOS>BOND
     1    1    2 1
     2    1   19 1
     3    1   20 1
     4    1   21 1
     5    2    3 1
     6    2    4 1
     7    2   17 1
     8    4    8 1
     9    4    5 2
    10    5    6 1
    11    5   22 1
    12    6    7 1
    13    7    8 2
    14    7    9 1
    15    9   14 ar
    16    9   10 ar
    17   10   11 ar
    18   10   23 1
    19   11   12 ar
    20   11   16 1
    21   12   13 ar
    22   12   24 1
    23   13   14 ar
    24   13   25 1
    25   14   15 1
    26   17   18 1
    27   17   26 1
    28   17   30 1
    29   18   27 1
    30   18   28 1
    31   18   29 1
@<TRIPOS>MOLECULE
ZINC80801918
   30    31     0     0     0
SMALL
USER_CHARGES

@<TRIPOS>ATOM
      1 C1         -0.0187    1.5258    0.0104 C.3       1 <0>        -0.1803
      2 C2          0.0021   -0.0041    0.0020 C.3       1 <0>         0.1159
      3 H1          0.5123   -0.3556   -0.8948 H         1 <0>         0.1514
      4 C3          0.7309   -0.5033    1.2229 C.2       1 <0>        -0.0008
      5 C4          2.0859   -0.6102    1.2105 C.2       1 <0>        -0.1825
      6 S1          2.3834   -1.2282    2.8622 S.3       1 <0>         0.1437
      7 C5          0.6750   -1.2766    3.3876 C.2       1 <0>         0.1624
      8 N1          0.0588   -0.8304    2.3018 N.2       1 <0>        -0.5260
      9 C6          0.1039   -1.6959    4.6850 C.ar      1 <0>        -0.0547
     10 C7         -1.2764   -1.6617    4.8870 C.ar      1 <0>        -0.0352
     11 C8         -1.8035   -2.0545    6.1010 C.ar      1 <0>        -0.0499
     12 C9         -0.9659   -2.4816    7.1180 C.ar      1 <0>        -0.0493
     13 C10         0.4027   -2.5183    6.9255 C.ar      1 <0>        -0.1307
     14 C11         0.9434   -2.1337    5.7127 C.ar      1 <0>         0.1344
     15 F1          2.2805   -2.1752    5.5237 F         1 <0>        -0.1175
     16 Cl1        -3.5205   -2.0125    6.3537 Cl        1 <0>        -0.0379
     17 N2         -1.3761   -0.5125    0.0124 N.4       1 <0>        -0.5010
     18 C12        -2.0500   -0.1262   -1.2343 C.3       1 <0>        -0.0522
     19 H2          1.0039    1.9031    0.0027 H         1 <0>         0.1066
     20 H3         -0.5459    1.8868   -0.8726 H         1 <0>         0.0903
     21 H4         -0.5289    1.8773    0.9072 H         1 <0>         0.0841
     22 H5          2.7883   -0.3845    0.4218 H         1 <0>         0.2112
     23 H6         -1.9311   -1.3282    4.0954 H         1 <0>         0.1522
     24 H7         -1.3838   -2.7871    8.0659 H         1 <0>         0.1581
     25 H8          1.0503   -2.8524    7.7226 H         1 <0>         0.1625
     26 H9         -1.3629   -1.5185    0.0898 H         1 <0>         0.4316
     27 H10        -3.0726   -0.5034   -1.2266 H         1 <0>         0.1288
     28 H11        -2.0643    0.9605   -1.3179 H         1 <0>         0.1257
     29 H12        -1.5132   -0.5489   -2.0836 H         1 <0>         0.1245
     30 H13        -1.8730   -0.1212    0.7986 H         1 <0>         0.4345
@<TRIPOS>BOND
     1    1    2 1
     2    1   19 1
     3    1   20 1
     4    1   21 1
     5    2    3 1
     6    2    4 1
     7    2   17 1
     8    4    8 1
     9    4    5 2
    10    5    6 1
    11    5   22 1
    12    6    7 1
    13    7    8 2
    14    7    9 1
    15    9   14 ar
    16    9   10 ar
    17   10   11 ar
    18   10   23 1
    19   11   12 ar
    20   11   16 1
    21   12   13 ar
    22   12   24 1
    23   13   14 ar
    24   13   25 1
    25   14   15 1
    26   17   18 1
    27   17   26 1
    28   17   30 1
    29   18   27 1
    30   18   28 1
    31   18   29 1
@<TRIPOS>MOLECULE
ZINC80802689
   36    37     0     0     0
SMALL
USER_CHARGES

@<TRIPOS>ATOM
      1 C1         -0.0187    1.5258    0.0104 C.3       1 <0>        -0.1563
      2 C2          0.0021   -0.0041    0.0020 C.3       1 <0>        -0.1499
      3 C3         -1.4333   -0.5336    0.0129 C.3       1 <0>        -0.0157
      4 N1         -1.4134   -2.0025    0.0048 N.4       1 <0>        -0.5005
      5 C4         -2.7915   -2.5110    0.0152 C.3       1 <0>         0.1168
      6 H1         -3.3444   -2.0792   -0.8190 H         1 <0>         0.1512
      7 C5         -3.4685   -2.1226    1.3312 C.3       1 <0>        -0.1801
      8 C6         -2.7742   -4.0121   -0.1168 C.2       1 <0>         0.0021
      9 C7         -3.8494   -4.6623   -0.6351 C.2       1 <0>        -0.1725
     10 S1         -3.2826   -6.3565   -0.5510 S.3       1 <0>         0.1125
     11 C8         -1.6795   -6.0146    0.1632 C.2       1 <0>         0.1765
     12 N2         -1.7186   -4.6932    0.2634 N.2       1 <0>        -0.5288
     13 C9         -0.5991   -6.9524    0.5362 C.ar      1 <0>        -0.0361
     14 C10         0.5863   -6.4693    1.0927 C.ar      1 <0>        -0.0338
     15 C11         1.5912   -7.3479    1.4395 C.ar      1 <0>        -0.1410
     16 C12         1.4263   -8.7086    1.2361 C.ar      1 <0>         0.1469
     17 C13         0.2510   -9.1944    0.6832 C.ar      1 <0>        -0.0752
     18 C14        -0.7633   -8.3239    0.3384 C.ar      1 <0>        -0.0493
     19 Cl1         0.0522  -10.9004    0.4309 Cl        1 <0>        -0.0208
     20 F1          2.4141   -9.5649    1.5772 F         1 <0>        -0.1104
     21 H2          1.0039    1.9031    0.0027 H         1 <0>         0.0777
     22 H3         -0.5459    1.8868   -0.8726 H         1 <0>         0.0671
     23 H4         -0.5289    1.8773    0.9072 H         1 <0>         0.0672
     24 H5          0.5123   -0.3556   -0.8948 H         1 <0>         0.0861
     25 H6          0.5293   -0.3651    0.8851 H         1 <0>         0.0866
     26 H7         -1.9435   -0.1821    0.9097 H         1 <0>         0.1337
     27 H8         -1.9605   -0.1726   -0.8702 H         1 <0>         0.1320
     28 H9         -0.9411   -2.3279   -0.8254 H         1 <0>         0.4294
     29 H10        -2.9156   -2.5543    2.1655 H         1 <0>         0.0845
     30 H11        -3.4811   -1.0368    1.4267 H         1 <0>         0.0897
     31 H12        -4.4911   -2.4999    1.3389 H         1 <0>         0.1070
     32 H13        -4.7867   -4.2658   -0.9967 H         1 <0>         0.2118
     33 H14         0.7166   -5.4089    1.2512 H         1 <0>         0.1491
     34 H15         2.5086   -6.9746    1.8701 H         1 <0>         0.1600
     35 H16        -1.6803   -8.7031   -0.0877 H         1 <0>         0.1498
     36 H17        -0.9254   -2.3367    0.8222 H         1 <0>         0.4324
@<TRIPOS>BOND
     1    1    2 1
     2    1   21 1
     3    1   22 1
     4    1   23 1
     5    2    3 1
     6    2   24 1
     7    2   25 1
     8    3    4 1
     9    3   26 1
    10    3   27 1
    11    4    5 1
    12    4   28 1
    13    4   36 1
    14    5    6 1
    15    5    7 1
    16    5    8 1
    17    7   29 1
    18    7   30 1
    19    7   31 1
    20    8   12 1
    21    8    9 2
    22    9   10 1
    23    9   32 1
    24   10   11 1
    25   11   12 2
    26   11   13 1
    27   13   18 ar
    28   13   14 ar
    29   14   15 ar
    30   14   33 1
    31   15   16 ar
    32   15   34 1
    33   16   17 ar
    34   16   20 1
    35   17   18 ar
    36   17   19 1
    37   18   35 1
@<TRIPOS>MOLECULE
ZINC80802687
   36    37     0     0     0
SMALL
USER_CHARGES

@<TRIPOS>ATOM
      1 C1         -0.0187    1.5258    0.0104 C.3       1 <0>        -0.1563
      2 C2          0.0021   -0.0041    0.0020 C.3       1 <0>        -0.1499
      3 C3         -1.4333   -0.5336    0.0129 C.3       1 <0>        -0.0157
      4 N1         -1.4134   -2.0025    0.0048 N.4       1 <0>        -0.5005
      5 C4         -2.7915   -2.5110    0.0152 C.3       1 <0>         0.1168
      6 H1         -3.3284   -2.0882    0.8645 H         1 <0>         0.1512
      7 C5         -3.4935   -2.1085   -1.2833 C.3       1 <0>        -0.1802
      8 C6         -2.7718   -4.0134    0.1308 C.2       1 <0>         0.0020
      9 C7         -3.8412   -4.6701    0.6531 C.2       1 <0>        -0.1724
     10 S1         -3.2741   -6.3628    0.5450 S.3       1 <0>         0.1126
     11 C8         -1.6788   -6.0119   -0.1822 C.2       1 <0>         0.1764
     12 N2         -1.7241   -4.6904   -0.2777 N.2       1 <0>        -0.5287
     13 C9         -0.6016   -6.9447   -0.5764 C.ar      1 <0>        -0.0360
     14 C10         0.5827   -6.4538   -1.1284 C.ar      1 <0>        -0.0339
     15 C11         1.5849   -7.3277   -1.4942 C.ar      1 <0>        -0.1409
     16 C12         1.4181   -8.6916   -1.3152 C.ar      1 <0>         0.1469
     17 C13         0.2435   -9.1853   -0.7678 C.ar      1 <0>        -0.0752
     18 C14        -0.7631   -8.3185   -0.3926 C.ar      1 <0>        -0.0493
     19 Cl1         0.0418  -10.8954   -0.5472 Cl        1 <0>        -0.0208
     20 F1          2.4029   -9.5434   -1.6757 F         1 <0>        -0.1104
     21 H2          1.0039    1.9031    0.0027 H         1 <0>         0.0777
     22 H3         -0.5459    1.8868   -0.8726 H         1 <0>         0.0672
     23 H4         -0.5289    1.8773    0.9072 H         1 <0>         0.0671
     24 H5          0.5123   -0.3556   -0.8948 H         1 <0>         0.0866
     25 H6          0.5293   -0.3651    0.8851 H         1 <0>         0.0861
     26 H7         -1.9435   -0.1821    0.9097 H         1 <0>         0.1320
     27 H8         -1.9605   -0.1726   -0.8702 H         1 <0>         0.1337
     28 H9         -0.9411   -2.3279   -0.8254 H         1 <0>         0.4325
     29 H10        -2.9566   -2.5312   -2.1326 H         1 <0>         0.0845
     30 H11        -4.5161   -2.4858   -1.2756 H         1 <0>         0.1070
     31 H12        -3.5077   -1.0218   -1.3669 H         1 <0>         0.0897
     32 H13        -4.7745   -4.2782    1.0297 H         1 <0>         0.2118
     33 H14         0.7139   -5.3910   -1.2692 H         1 <0>         0.1491
     34 H15         2.5015   -6.9483   -1.9213 H         1 <0>         0.1600
     35 H16        -1.6758   -8.7031    0.0381 H         1 <0>         0.1498
     36 H17        -0.9254   -2.3367    0.8222 H         1 <0>         0.4294
@<TRIPOS>BOND
     1    1    2 1
     2    1   21 1
     3    1   22 1
     4    1   23 1
     5    2    3 1
     6    2   24 1
     7    2   25 1
     8    3    4 1
     9    3   26 1
    10    3   27 1
    11    4    5 1
    12    4   28 1
    13    4   36 1
    14    5    6 1
    15    5    7 1
    16    5    8 1
    17    7   29 1
    18    7   30 1
    19    7   31 1
    20    8   12 1
    21    8    9 2
    22    9   10 1
    23    9   32 1
    24   10   11 1
    25   11   12 2
    26   11   13 1
    27   13   18 ar
    28   13   14 ar
    29   14   15 ar
    30   14   33 1
    31   15   16 ar
    32   15   34 1
    33   16   17 ar
    34   16   20 1
    35   17   18 ar
    36   17   19 1
    37   18   35 1
@<TRIPOS>MOLECULE
ZINC61052840
   35    36     0     0     0
SMALL
USER_CHARGES

@<TRIPOS>ATOM
      1 C1         -0.0184    1.5028    0.0103 C.3       1 <0>        -0.1746
      2 C2          0.0021   -0.0041    0.0020 C.2       1 <0>         0.5124
      3 O1          1.0605   -0.5961   -0.0113 O.2       1 <0>        -0.5426
      4 N1         -1.1558   -0.6938    0.0094 N.am      1 <0>        -0.7312
      5 C3         -1.1360   -2.1586    0.0013 C.3       1 <0>         0.1071
      6 C4         -2.5713   -2.6882    0.0122 C.3       1 <0>         0.1086
      7 N2         -2.5515   -4.1530    0.0041 N.am      1 <0>        -0.7115
      8 C5         -3.7094   -4.8427    0.0115 C.2       1 <0>         0.5954
      9 O2         -4.7708   -4.2490    0.0248 O.2       1 <0>        -0.5319
     10 C6         -3.6894   -6.3157    0.0034 C.2       1 <0>        -0.0144
     11 C7         -4.8606   -7.0261    0.0055 C.2       1 <0>        -0.1942
     12 S1         -4.3194   -8.6197   -0.0066 S.3       1 <0>         0.1878
     13 C8         -2.5656   -8.2924   -0.0140 C.2       1 <0>         0.1059
     14 N3         -2.5376   -6.9721   -0.0116 N.2       1 <0>        -0.4549
     15 C9         -1.4378   -9.2495   -0.0252 C.ar      1 <0>        -0.0013
     16 C10        -0.1227   -8.7827   -0.0232 C.ar      1 <0>        -0.0681
     17 C11         0.9252   -9.6799   -0.0337 C.ar      1 <0>        -0.1033
     18 C12         0.6751  -11.0405   -0.0461 C.ar      1 <0>        -0.0907
     19 C13        -0.6271  -11.5107   -0.0481 C.ar      1 <0>        -0.0328
     20 C14        -1.6845  -10.6224   -0.0318 C.ar      1 <0>        -0.0881
     21 Cl1        -0.9312  -13.2197   -0.0636 Cl        1 <0>        -0.0564
     22 H1          1.0042    1.8801    0.0026 H         1 <0>         0.0945
     23 H2         -0.5455    1.8639   -0.8728 H         1 <0>         0.0900
     24 H3         -0.5286    1.8543    0.9071 H         1 <0>         0.0900
     25 H4         -2.0023   -0.2203    0.0200 H         1 <0>         0.4049
     26 H5         -0.6258   -2.5101   -0.8955 H         1 <0>         0.0762
     27 H6         -0.6088   -2.5197    0.8844 H         1 <0>         0.0762
     28 H7         -3.0815   -2.3367    0.9090 H         1 <0>         0.0779
     29 H8         -3.0985   -2.3271   -0.8709 H         1 <0>         0.0779
     30 H9         -1.7050   -4.6265   -0.0065 H         1 <0>         0.4130
     31 H10        -5.8755   -6.6567    0.0130 H         1 <0>         0.2124
     32 H11         0.0743   -7.7208   -0.0139 H         1 <0>         0.1426
     33 H12         1.9432   -9.3192   -0.0326 H         1 <0>         0.1434
     34 H13         1.4990  -11.7387   -0.0546 H         1 <0>         0.1412
     35 H14        -2.7001  -10.9898   -0.0285 H         1 <0>         0.1385
@<TRIPOS>BOND
     1    1    2 1
     2    1   22 1
     3    1   23 1
     4    1   24 1
     5    2    3 2
     6    2    4 am
     7    4    5 1
     8    4   25 1
     9    5    6 1
    10    5   26 1
    11    5   27 1
    12    6    7 1
    13    6   28 1
    14    6   29 1
    15    7    8 am
    16    7   30 1
    17    8    9 2
    18    8   10 1
    19   10   14 1
    20   10   11 2
    21   11   12 1
    22   11   31 1
    23   12   13 1
    24   13   14 2
    25   13   15 1
    26   15   20 ar
    27   15   16 ar
    28   16   17 ar
    29   16   32 1
    30   17   18 ar
    31   17   33 1
    32   18   19 ar
    33   18   34 1
    34   19   20 ar
    35   19   21 1
    36   20   35 1
@<TRIPOS>MOLECULE
ZINC19779337
   23    24     0     0     0
SMALL
USER_CHARGES
4-(4-methylthiazol-2-yl)benzaldehyde
@<TRIPOS>ATOM
      1 C1         -2.4789    1.3907    0.0198 C.3       1 <0>        -0.0864
      2 C2         -1.0721    1.9312    0.0166 C.2       1 <0>         0.0576
      3 C3         -0.0126    1.0758    0.0080 C.2       1 <0>        -0.1983
      4 S1          1.3480    2.2367    0.0012 S.3       1 <0>         0.0196
      5 C4          0.3614    3.7279    0.0175 C.2       1 <0>         0.1427
      6 N1         -0.8660    3.2251    0.0263 N.2       1 <0>        -0.4890
      7 C5          0.7961    5.1391    0.0211 C.ar      1 <0>         0.0178
      8 C6         -0.1557    6.1629    0.0295 C.ar      1 <0>        -0.0849
      9 C7          0.2449    7.4683    0.0386 C.ar      1 <0>        -0.0599
     10 C8          1.6099    7.7813    0.0275 C.ar      1 <0>        -0.1753
     11 C9          2.5623    6.7546    0.0134 C.ar      1 <0>        -0.0648
     12 C10         2.1590    5.4500    0.0105 C.ar      1 <0>        -0.1075
     13 C11         2.0425    9.1856    0.0301 C.2       1 <0>         0.3764
     14 O1          1.2172   10.0744    0.0423 O.2       1 <0>        -0.4535
     15 H1         -2.4492    0.2911    0.0104 H         1 <0>         0.0761
     16 H2         -3.0120    1.7508   -0.8725 H         1 <0>         0.0766
     17 H3         -3.0022    1.7357    0.9238 H         1 <0>         0.0766
     18 H4          0.0021   -0.0041    0.0020 H         1 <0>         0.2016
     19 H5         -1.2083    5.9213    0.0332 H         1 <0>         0.1421
     20 H6         -0.4907    8.2591    0.0495 H         1 <0>         0.1418
     21 H7          3.6153    6.9945    0.0044 H         1 <0>         0.1430
     22 H8          2.8932    4.6581   -0.0004 H         1 <0>         0.1341
     23 H9          3.1148    9.4308    0.0210 H         1 <0>         0.1138
@<TRIPOS>BOND
     1    1    2 1
     2    1   15 1
     3    1   16 1
     4    1   17 1
     5    2    6 1
     6    2    3 2
     7    3    4 1
     8    3   18 1
     9    4    5 1
    10    5    6 2
    11    5    7 1
    12    7   12 ar
    13    7    8 ar
    14    8    9 ar
    15    8   19 1
    16    9   10 ar
    17    9   20 1
    18   10   11 ar
    19   10   13 1
    20   11   12 ar
    21   11   21 1
    22   12   22 1
    23   13   14 2
    24   13   23 1
@<TRIPOS>MOLECULE
ZINC40419326
   31    33     0     0     0
SMALL
USER_CHARGES

@<TRIPOS>ATOM
      1 C1         -0.0166    1.3752    0.0096 C.ar      1 <0>        -0.1120
      2 C2          1.1701    2.0869    0.0021 C.ar      1 <0>        -0.0738
      3 C3          2.3826    1.4218   -0.0130 C.ar      1 <0>        -0.1027
      4 C4          2.4159    0.0410   -0.0212 C.ar      1 <0>        -0.0187
      5 C5          1.2216   -0.6825   -0.0136 C.ar      1 <0>        -0.0265
      6 C6          0.0021   -0.0041    0.0020 C.ar      1 <0>        -0.0552
      7 C7          1.2488   -2.1607   -0.0228 C.2       1 <0>         0.1609
      8 N1          0.2401   -3.0208   -0.0234 N.2       1 <0>        -0.5002
      9 C8          0.4494   -4.3164   -0.0329 C.2       1 <0>        -0.0155
     10 C9          1.7209   -4.7972   -0.0424 C.2       1 <0>        -0.2045
     11 S1          2.6512   -3.2697   -0.0439 S.3       1 <0>         0.1398
     12 C10        -0.7179   -5.2696   -0.0328 C.3       1 <0>         0.0831
     13 N2         -1.1665   -5.4943    1.3478 N.4       1 <0>        -0.4782
     14 C11        -2.3043   -6.4234    1.3479 C.3       1 <0>        -0.0839
     15 C12        -3.6483   -5.8944    1.8528 C.3       1 <0>        -0.1535
     16 C13        -2.8446   -6.8786    2.7051 C.3       1 <0>        -0.1542
     17 Cl1         3.9384   -0.7927   -0.0413 Cl        1 <0>        -0.0290
     18 H1         -0.9599    1.9010    0.0259 H         1 <0>         0.1444
     19 H2          1.1494    3.1667    0.0077 H         1 <0>         0.1467
     20 H3          3.3052    1.9832   -0.0188 H         1 <0>         0.1492
     21 H4         -0.9251   -0.5578    0.0082 H         1 <0>         0.1444
     22 H5          2.0720   -5.8185   -0.0509 H         1 <0>         0.2066
     23 H6         -1.5348   -4.8437   -0.6155 H         1 <0>         0.1440
     24 H7         -0.4125   -6.2181   -0.4746 H         1 <0>         0.1448
     25 H8         -0.4103   -5.8885    1.8872 H         1 <0>         0.4266
     26 H9         -2.3219   -7.1453    0.5314 H         1 <0>         0.1790
     27 H10        -3.6881   -4.8570    2.1849 H         1 <0>         0.1209
     28 H11        -4.5503   -6.2681    1.3683 H         1 <0>         0.1343
     29 H12        -3.2179   -7.8998    2.7813 H         1 <0>         0.1347
     30 H13        -2.3557   -6.4886    3.5979 H         1 <0>         0.1203
     31 H14        -1.4492   -4.6162    1.7568 H         1 <0>         0.4281
@<TRIPOS>BOND
     1    1    6 ar
     2    1    2 ar
     3    1   18 1
     4    2    3 ar
     5    2   19 1
     6    3    4 ar
     7    3   20 1
     8    4    5 ar
     9    4   17 1
    10    5    6 ar
    11    5    7 1
    12    6   21 1
    13    7   11 1
    14    7    8 2
    15    8    9 1
    16    9   10 2
    17    9   12 1
    18   10   11 1
    19   10   22 1
    20   12   13 1
    21   12   23 1
    22   12   24 1
    23   13   14 1
    24   13   25 1
    25   13   31 1
    26   14   16 1
    27   14   15 1
    28   14   26 1
    29   15   16 1
    30   15   27 1
    31   15   28 1
    32   16   29 1
    33   16   30 1
@<TRIPOS>MOLECULE
ZINC43389059
   30    31     0     0     0
SMALL
USER_CHARGES

@<TRIPOS>ATOM
      1 C1         -0.0187    1.5258    0.0104 C.3       1 <0>        -0.1902
      2 C2          0.0021   -0.0041    0.0020 C.3       1 <0>        -0.0095
      3 N1          0.7126   -0.4907    1.1921 N.4       1 <0>        -0.5091
      4 C3          0.7325   -1.9595    1.1840 C.3       1 <0>         0.0779
      5 C4          1.4614   -2.4588    2.4049 C.2       1 <0>        -0.0115
      6 C5          0.7648   -2.8028    3.5205 C.2       1 <0>        -0.1757
      7 S1          2.0991   -3.3016    4.6019 S.3       1 <0>         0.1105
      8 C6          3.4353   -2.9982    3.4532 C.2       1 <0>         0.1711
      9 N2          2.7692   -2.5672    2.3912 N.2       1 <0>        -0.4983
     10 C7          4.8907   -3.1831    3.6367 C.ar      1 <0>        -0.0049
     11 C8          5.7721   -2.8757    2.5990 C.ar      1 <0>        -0.0632
     12 C9          7.1291   -3.0493    2.7748 C.ar      1 <0>        -0.0803
     13 C10         7.6190   -3.5278    3.9780 C.ar      1 <0>        -0.0497
     14 C11         6.7492   -3.8353    5.0133 C.ar      1 <0>         0.1204
     15 C12         5.3884   -3.6601    4.8497 C.ar      1 <0>        -0.1128
     16 F1          7.2333   -4.3023    6.1849 F         1 <0>        -0.1125
     17 Cl1         9.3282   -3.7442    4.1913 Cl        1 <0>        -0.0216
     18 H1          1.0039    1.9031    0.0027 H         1 <0>         0.0808
     19 H2         -0.5459    1.8868   -0.8726 H         1 <0>         0.1084
     20 H3         -0.5289    1.8773    0.9072 H         1 <0>         0.0806
     21 H4         -1.0205   -0.3814    0.0098 H         1 <0>         0.1327
     22 H5          0.5123   -0.3556   -0.8948 H         1 <0>         0.1329
     23 H6          1.6592   -0.1414    1.1850 H         1 <0>         0.4310
     24 H7         -0.2901   -2.3368    1.1918 H         1 <0>         0.1466
     25 H8          1.2427   -2.3111    0.2873 H         1 <0>         0.1460
     26 H9         -0.2994   -2.7807    3.7032 H         1 <0>         0.2128
     27 H10         5.3920   -2.5026    1.6594 H         1 <0>         0.1520
     28 H11         7.8112   -2.8118    1.9718 H         1 <0>         0.1584
     29 H12         4.7114   -3.8954    5.6575 H         1 <0>         0.1509
     30 H13         0.2403   -0.1653    2.0223 H         1 <0>         0.4263
@<TRIPOS>BOND
     1    1    2 1
     2    1   18 1
     3    1   19 1
     4    1   20 1
     5    2    3 1
     6    2   21 1
     7    2   22 1
     8    3    4 1
     9    3   23 1
    10    3   30 1
    11    4    5 1
    12    4   24 1
    13    4   25 1
    14    5    9 1
    15    5    6 2
    16    6    7 1
    17    6   26 1
    18    7    8 1
    19    8    9 2
    20    8   10 1
    21   10   15 ar
    22   10   11 ar
    23   11   12 ar
    24   11   27 1
    25   12   13 ar
    26   12   28 1
    27   13   14 ar
    28   13   17 1
    29   14   15 ar
    30   14   16 1
    31   15   29 1
@<TRIPOS>MOLECULE
ZINC70840478
   30    31     0     0     0
SMALL
USER_CHARGES

@<TRIPOS>ATOM
      1 C1         -0.0184    1.5028    0.0103 C.3       1 <0>        -0.1221
      2 C2          0.0021   -0.0041    0.0020 C.ar      1 <0>        -0.1132
      3 C3          0.0057   -0.6860   -1.1970 C.ar      1 <0>        -0.0560
      4 C4          0.0246   -2.0813   -1.2032 C.ar      1 <0>        -0.0534
      5 C5          0.0398   -2.7795    0.0053 C.ar      1 <0>        -0.0362
      6 C6          0.0360   -2.0881    1.1983 C.ar      1 <0>        -0.1504
      7 C7          0.0229   -0.7020    1.1989 C.ar      1 <0>         0.1374
      8 F1          0.0253   -0.0293    2.3704 F         1 <0>        -0.1220
      9 C8          0.0281   -2.8174   -2.4854 C.2       1 <0>         0.1989
     10 N1          0.0393   -4.1247   -2.7050 N.2       1 <0>        -0.5011
     11 C9          0.0402   -4.6108   -3.9242 C.2       1 <0>         0.0417
     12 C10         0.0296   -3.7671   -4.9899 C.2       1 <0>        -0.2618
     13 S1          0.0104   -2.1843   -4.1575 S.3       1 <0>         0.1048
     14 C11         0.0536   -6.1019   -4.1422 C.3       1 <0>         0.1094
     15 H1         -0.8728   -6.5329   -3.7627 H         1 <0>         0.1579
     16 C12         1.2429   -6.7152   -3.4003 C.3       1 <0>        -0.1749
     17 N2          0.1733   -6.3857   -5.5786 N.4       1 <0>        -0.6350
     18 H2          1.0042    1.8801    0.0026 H         1 <0>         0.0830
     19 H3         -0.5455    1.8639   -0.8728 H         1 <0>         0.0784
     20 H4         -0.5286    1.8543    0.9071 H         1 <0>         0.0789
     21 H5         -0.0065   -0.1409   -2.1293 H         1 <0>         0.1386
     22 H6          0.0541   -3.8594    0.0060 H         1 <0>         0.1471
     23 H7          0.0478   -2.6274    2.1340 H         1 <0>         0.1514
     24 H8          0.0287   -3.9907   -6.0465 H         1 <0>         0.1984
     25 H9          1.1540   -6.5046   -2.3345 H         1 <0>         0.1151
     26 H10         1.2525   -7.7937   -3.5580 H         1 <0>         0.0883
     27 H11         2.1693   -6.2842   -3.7798 H         1 <0>         0.0807
     28 H12         1.0309   -5.9868   -5.9299 H         1 <0>         0.4351
     29 H13         0.1823   -7.3841   -5.7245 H         1 <0>         0.4441
     30 H14        -0.6110   -5.9813   -6.0678 H         1 <0>         0.4368
@<TRIPOS>BOND
     1    1    2 1
     2    1   18 1
     3    1   19 1
     4    1   20 1
     5    2    7 ar
     6    2    3 ar
     7    3    4 ar
     8    3   21 1
     9    4    5 ar
    10    4    9 1
    11    5    6 ar
    12    5   22 1
    13    6    7 ar
    14    6   23 1
    15    7    8 1
    16    9   13 1
    17    9   10 2
    18   10   11 1
    19   11   12 2
    20   11   14 1
    21   12   13 1
    22   12   24 1
    23   14   15 1
    24   14   16 1
    25   14   17 1
    26   16   25 1
    27   16   26 1
    28   16   27 1
    29   17   28 1
    30   17   29 1
    31   17   30 1
@<TRIPOS>MOLECULE
ZINC70246118
   32    33     0     0     0
SMALL
USER_CHARGES

@<TRIPOS>ATOM
      1 C1          0.0180   -1.1779   -0.0044 C.1       1 <0>        -0.1246
      2 C2          0.0021   -0.0041    0.0020 C.1       1 <0>        -0.2410
      3 C3         -0.0179    1.4678    0.0101 C.3       1 <0>        -0.0220
      4 C4          1.4175    1.9974   -0.0007 C.3       1 <0>        -0.0046
      5 N1          1.3976    3.4662    0.0073 N.4       1 <0>        -0.5080
      6 C5          2.7757    3.9747   -0.0031 C.3       1 <0>         0.0788
      7 C6          2.7553    5.4815    0.0052 C.2       1 <0>        -0.0092
      8 C7          2.8649    6.1573    1.1794 C.2       1 <0>        -0.1810
      9 S1          2.7827    7.8463    0.5971 S.3       1 <0>         0.0977
     10 C8          2.6117    7.4688   -1.1422 C.2       1 <0>         0.1844
     11 N2          2.6371    6.1435   -1.1220 N.2       1 <0>        -0.5079
     12 C9          2.4824    8.3874   -2.2935 C.ar      1 <0>        -0.0552
     13 C10         2.3523    7.8766   -3.5858 C.ar      1 <0>        -0.0330
     14 C11         2.2320    8.7378   -4.6562 C.ar      1 <0>        -0.1555
     15 C12         2.2408   10.1083   -4.4504 C.ar      1 <0>         0.1393
     16 C13         2.3698   10.6208   -3.1693 C.ar      1 <0>        -0.1500
     17 C14         2.4844    9.7683   -2.0912 C.ar      1 <0>        -0.0532
     18 F1          2.1236   10.9477   -5.5025 F         1 <0>        -0.1240
     19 H1          0.0322   -2.2278   -0.0102 H         1 <0>         0.2272
     20 H2         -0.5451    1.8289   -0.8729 H         1 <0>         0.1070
     21 H3         -0.5281    1.8193    0.9069 H         1 <0>         0.1069
     22 H4          1.9447    1.6363    0.8823 H         1 <0>         0.1379
     23 H5          1.9277    1.6458   -0.8975 H         1 <0>         0.1380
     24 H6          0.9096    3.8004   -0.8101 H         1 <0>         0.4326
     25 H7          3.3029    3.6136    0.8800 H         1 <0>         0.1472
     26 H8          3.2859    3.6231   -0.8999 H         1 <0>         0.1465
     27 H9          2.9717    5.7792    2.1854 H         1 <0>         0.2111
     28 H10         2.3460    6.8087   -3.7473 H         1 <0>         0.1455
     29 H11         2.1313    8.3436   -5.6566 H         1 <0>         0.1502
     30 H12         2.3761   11.6896   -3.0144 H         1 <0>         0.1519
     31 H13         2.5800   10.1687   -1.0927 H         1 <0>         0.1394
     32 H14         0.9253    3.7916    0.8375 H         1 <0>         0.4277
@<TRIPOS>BOND
     1    1    2 3
     2    1   19 1
     3    2    3 1
     4    3    4 1
     5    3   20 1
     6    3   21 1
     7    4    5 1
     8    4   22 1
     9    4   23 1
    10    5    6 1
    11    5   24 1
    12    5   32 1
    13    6    7 1
    14    6   25 1
    15    6   26 1
    16    7   11 1
    17    7    8 2
    18    8    9 1
    19    8   27 1
    20    9   10 1
    21   10   11 2
    22   10   12 1
    23   12   17 ar
    24   12   13 ar
    25   13   14 ar
    26   13   28 1
    27   14   15 ar
    28   14   29 1
    29   15   16 ar
    30   15   18 1
    31   16   17 ar
    32   16   30 1
    33   17   31 1
@<TRIPOS>MOLECULE
ZINC70246118
   31    32     0     0     0
SMALL
USER_CHARGES

@<TRIPOS>ATOM
      1 C1          0.0180   -1.1779   -0.0044 C.1       1 <0>        -0.2022
      2 C2          0.0021   -0.0041    0.0020 C.1       1 <0>        -0.1913
      3 C3         -0.0179    1.4678    0.0101 C.3       1 <0>        -0.0101
      4 C4          1.4175    1.9974   -0.0007 C.3       1 <0>         0.0643
      5 N1          1.3976    3.4662    0.0073 N.3       1 <0>        -0.6856
      6 C5          2.7617    4.0113   -0.0028 C.3       1 <0>         0.1309
      7 C6          2.7010    5.5170    0.0059 C.2       1 <0>         0.0561
      8 C7          2.7925    6.1952    1.1803 C.2       1 <0>        -0.1729
      9 S1          2.6653    7.8816    0.5984 S.3       1 <0>         0.0188
     10 C8          2.5047    7.5001   -1.1411 C.2       1 <0>         0.1525
     11 N2          2.5654    6.1759   -1.1212 N.2       1 <0>        -0.4921
     12 C9          2.3511    8.4152   -2.2921 C.ar      1 <0>        -0.0275
     13 C10         2.2348    7.9014   -3.5845 C.ar      1 <0>        -0.0412
     14 C11         2.0918    8.7594   -4.6547 C.ar      1 <0>        -0.1536
     15 C12         2.0639   10.1296   -4.4486 C.ar      1 <0>         0.1197
     16 C13         2.1791   10.6450   -3.1673 C.ar      1 <0>        -0.1507
     17 C14         2.3162    9.7956   -2.0895 C.ar      1 <0>        -0.0623
     18 F1          1.9246   10.9658   -5.5005 F         1 <0>        -0.1324
     19 H1          0.0322   -2.2278   -0.0102 H         1 <0>         0.2179
     20 H2         -0.5451    1.8289   -0.8729 H         1 <0>         0.0854
     21 H3         -0.5281    1.8193    0.9069 H         1 <0>         0.0962
     22 H4          1.9447    1.6363    0.8823 H         1 <0>         0.0790
     23 H5          1.9277    1.6458   -0.8975 H         1 <0>         0.0369
     24 H6          3.2982    3.6641    0.8803 H         1 <0>         0.0903
     25 H7          3.2812    3.6737   -0.8996 H         1 <0>         0.0501
     26 H8          2.9092    5.8198    2.1862 H         1 <0>         0.2015
     27 H9          2.2570    6.8338   -3.7463 H         1 <0>         0.1459
     28 H10         2.0017    8.3629   -5.6553 H         1 <0>         0.1452
     29 H11         2.1568   11.7136   -3.0122 H         1 <0>         0.1459
     30 H12         2.4009   10.1981   -1.0909 H         1 <0>         0.1381
     31 H13         0.8592    3.8248   -0.7670 H         1 <0>         0.3472
@<TRIPOS>BOND
     1    1    2 3
     2    1   19 1
     3    2    3 1
     4    3    4 1
     5    3   20 1
     6    3   21 1
     7    4    5 1
     8    4   22 1
     9    4   23 1
    10    5    6 1
    11    5   31 1
    12    6    7 1
    13    6   24 1
    14    6   25 1
    15    7   11 1
    16    7    8 2
    17    8    9 1
    18    8   26 1
    19    9   10 1
    20   10   11 2
    21   10   12 1
    22   12   17 ar
    23   12   13 ar
    24   13   14 ar
    25   13   27 1
    26   14   15 ar
    27   14   28 1
    28   15   16 ar
    29   15   18 1
    30   16   17 ar
    31   16   29 1
    32   17   30 1
@<TRIPOS>MOLECULE
ZINC70840470
   30    31     0     0     0
SMALL
USER_CHARGES

@<TRIPOS>ATOM
      1 C1         -0.0184    1.5028    0.0103 C.3       1 <0>        -0.1229
      2 C2          0.0021   -0.0041    0.0020 C.ar      1 <0>        -0.1111
      3 C3          0.0057   -0.6860   -1.1970 C.ar      1 <0>        -0.0578
      4 C4          0.0246   -2.0813   -1.2032 C.ar      1 <0>        -0.0489
      5 C5          0.0398   -2.7795    0.0053 C.ar      1 <0>        -0.0413
      6 C6          0.0360   -2.0881    1.1983 C.ar      1 <0>        -0.1503
      7 C7          0.0229   -0.7020    1.1989 C.ar      1 <0>         0.1349
      8 F1          0.0253   -0.0293    2.3704 F         1 <0>        -0.1223
      9 C8          0.0281   -2.8174   -2.4854 C.2       1 <0>         0.1847
     10 N1          0.0393   -4.1247   -2.7050 N.2       1 <0>        -0.5141
     11 C9          0.0402   -4.6108   -3.9242 C.2       1 <0>        -0.0073
     12 C10         0.0296   -3.7671   -4.9899 C.2       1 <0>        -0.1761
     13 S1          0.0104   -2.1843   -4.1575 S.3       1 <0>         0.0980
     14 C11         0.0536   -6.1019   -4.1422 C.3       1 <0>         0.1172
     15 H1          0.1424   -6.3125   -5.2080 H         1 <0>         0.1533
     16 C12         1.2429   -6.7152   -3.4003 C.3       1 <0>        -0.1774
     17 N2         -1.1950   -6.6828   -3.6307 N.4       1 <0>        -0.6341
     18 H2          1.0042    1.8801    0.0026 H         1 <0>         0.0835
     19 H3         -0.5455    1.8639   -0.8728 H         1 <0>         0.0787
     20 H4         -0.5286    1.8543    0.9071 H         1 <0>         0.0788
     21 H5         -0.0065   -0.1409   -2.1293 H         1 <0>         0.1389
     22 H6          0.0541   -3.8594    0.0060 H         1 <0>         0.1439
     23 H7          0.0478   -2.6274    2.1340 H         1 <0>         0.1502
     24 H8          0.0287   -3.9907   -6.0465 H         1 <0>         0.2109
     25 H9          1.2525   -7.7937   -3.5580 H         1 <0>         0.0865
     26 H10         2.1693   -6.2842   -3.7798 H         1 <0>         0.1037
     27 H11         1.1540   -6.5046   -2.3345 H         1 <0>         0.0899
     28 H12        -1.9793   -6.2784   -4.1200 H         1 <0>         0.4348
     29 H13        -1.1860   -7.6811   -3.7767 H         1 <0>         0.4375
     30 H14        -1.2772   -6.4878   -2.6441 H         1 <0>         0.4380
@<TRIPOS>BOND
     1    1    2 1
     2    1   18 1
     3    1   19 1
     4    1   20 1
     5    2    7 ar
     6    2    3 ar
     7    3    4 ar
     8    3   21 1
     9    4    5 ar
    10    4    9 1
    11    5    6 ar
    12    5   22 1
    13    6    7 ar
    14    6   23 1
    15    7    8 1
    16    9   13 1
    17    9   10 2
    18   10   11 1
    19   11   12 2
    20   11   14 1
    21   12   13 1
    22   12   24 1
    23   14   15 1
    24   14   16 1
    25   14   17 1
    26   16   25 1
    27   16   26 1
    28   16   27 1
    29   17   28 1
    30   17   29 1
    31   17   30 1
@<TRIPOS>MOLECULE
ZINC40999622
   30    31     0     0     0
SMALL
USER_CHARGES

@<TRIPOS>ATOM
      1 C1         -0.0187    1.5258    0.0104 C.3       1 <0>        -0.1900
      2 C2          0.0021   -0.0041    0.0020 C.3       1 <0>        -0.0095
      3 N1          0.6897   -0.4778   -1.2066 N.4       1 <0>        -0.5090
      4 C3          0.7096   -1.9467   -1.2147 C.3       1 <0>         0.0787
      5 C4          1.4150   -2.4327   -2.4546 C.2       1 <0>        -0.0119
      6 C5          2.7374   -2.7435   -2.4078 C.2       1 <0>        -0.1918
      7 S1          3.0194   -3.2420   -4.1020 S.3       1 <0>         0.1264
      8 C6          1.3495   -2.9827   -4.6862 C.2       1 <0>         0.1704
      9 N2          0.7521   -2.5617   -3.5801 N.2       1 <0>        -0.5040
     10 C7          0.7857   -3.1877   -6.0372 C.ar      1 <0>        -0.0725
     11 C8         -0.5605   -2.9150   -6.2839 C.ar      1 <0>        -0.0388
     12 C9         -1.0806   -3.1079   -7.5468 C.ar      1 <0>        -0.1283
     13 C10        -0.2715   -3.5713   -8.5695 C.ar      1 <0>        -0.0556
     14 C11         1.0635   -3.8441   -8.3342 C.ar      1 <0>        -0.1475
     15 C12         1.5997   -3.6500   -7.0748 C.ar      1 <0>         0.1287
     16 F1          2.9054   -3.9112   -6.8467 F         1 <0>        -0.1244
     17 H1          1.0039    1.9031    0.0027 H         1 <0>         0.0804
     18 H2         -0.5459    1.8868   -0.8726 H         1 <0>         0.0806
     19 H3         -0.5289    1.8773    0.9072 H         1 <0>         0.1081
     20 H4          0.5293   -0.3651    0.8851 H         1 <0>         0.1324
     21 H5         -1.0205   -0.3814    0.0098 H         1 <0>         0.1325
     22 H6          0.2017   -0.1436   -2.0240 H         1 <0>         0.4307
     23 H7          1.2368   -2.3077   -0.3316 H         1 <0>         0.1456
     24 H8         -0.3130   -2.3239   -1.2069 H         1 <0>         0.1447
     25 H9          3.4269   -2.7006   -1.5776 H         1 <0>         0.2101
     26 H10        -1.1941   -2.5540   -5.4872 H         1 <0>         0.1446
     27 H11        -2.1224   -2.8970   -7.7380 H         1 <0>         0.1446
     28 H12        -0.6848   -3.7210   -9.5560 H         1 <0>         0.1471
     29 H13         1.6894   -4.2059   -9.1366 H         1 <0>         0.1514
     30 H14         1.6363   -0.1286   -1.2138 H         1 <0>         0.4261
@<TRIPOS>BOND
     1    1    2 1
     2    1   17 1
     3    1   18 1
     4    1   19 1
     5    2    3 1
     6    2   20 1
     7    2   21 1
     8    3    4 1
     9    3   22 1
    10    3   30 1
    11    4    5 1
    12    4   23 1
    13    4   24 1
    14    5    9 1
    15    5    6 2
    16    6    7 1
    17    6   25 1
    18    7    8 1
    19    8    9 2
    20    8   10 1
    21   10   15 ar
    22   10   11 ar
    23   11   12 ar
    24   11   26 1
    25   12   13 ar
    26   12   27 1
    27   13   14 ar
    28   13   28 1
    29   14   15 ar
    30   14   29 1
    31   15   16 1
@<TRIPOS>MOLECULE
ZINC94902781
   39    40     0     0     0
SMALL
USER_CHARGES

@<TRIPOS>ATOM
      1 C1         -0.0187    1.5258    0.0104 C.3       1 <0>        -0.1770
      2 C2          0.0021   -0.0041    0.0020 C.3       1 <0>         0.1171
      3 H1          0.5123   -0.3556   -0.8948 H         1 <0>         0.1528
      4 C3         -1.4117   -0.5257    0.0127 C.2       1 <0>        -0.0062
      5 C4         -1.8247   -1.3934   -0.9491 C.2       1 <0>        -0.1805
      6 S1         -3.5212   -1.6577   -0.4485 S.3       1 <0>         0.0903
      7 C5         -3.4951   -0.5866    0.9830 C.2       1 <0>         0.1905
      8 N1         -2.2447   -0.1474    0.9534 N.2       1 <0>        -0.5182
      9 C6         -4.5757   -0.2782    1.9441 C.ar      1 <0>        -0.0505
     10 C7         -4.3425    0.6015    3.0020 C.ar      1 <0>        -0.0589
     11 C8         -5.3549    0.8850    3.8954 C.ar      1 <0>        -0.1207
     12 C9         -6.5990    0.2989    3.7444 C.ar      1 <0>        -0.0366
     13 C10        -6.8366   -0.5744    2.6980 C.ar      1 <0>        -0.1127
     14 C11        -5.8346   -0.8612    1.7939 C.ar      1 <0>        -0.0796
     15 C12        -7.7001    0.6128    4.7242 C.3       1 <0>        -0.0886
     16 C13        -8.4930    1.8242    4.2295 C.3       1 <0>        -0.0898
     17 C14        -9.2039    1.4691    2.9220 C.3       1 <0>        -0.1545
     18 C15        -9.5300    2.2197    5.2827 C.3       1 <0>        -0.1510
     19 N2          0.7126   -0.4907    1.1921 N.4       1 <0>        -0.6339
     20 H2          1.0039    1.9031    0.0027 H         1 <0>         0.0861
     21 H3         -0.5459    1.8868   -0.8726 H         1 <0>         0.1035
     22 H4         -0.5289    1.8773    0.9072 H         1 <0>         0.0897
     23 H5         -1.2795   -1.8079   -1.7842 H         1 <0>         0.2096
     24 H6         -3.3715    1.0590    3.1214 H         1 <0>         0.1328
     25 H7         -5.1758    1.5656    4.7145 H         1 <0>         0.1348
     26 H8         -7.8099   -1.0289    2.5858 H         1 <0>         0.1370
     27 H9         -6.0228   -1.5391    0.9744 H         1 <0>         0.1282
     28 H10        -8.3654   -0.2462    4.8106 H         1 <0>         0.0806
     29 H11        -7.2663    0.8360    5.6990 H         1 <0>         0.0800
     30 H12        -7.8127    2.6585    4.0583 H         1 <0>         0.0715
     31 H13        -9.7687    2.3321    2.5696 H         1 <0>         0.0577
     32 H14        -8.4651    1.1874    2.1717 H         1 <0>         0.0556
     33 H15        -9.8841    0.6349    3.0933 H         1 <0>         0.0573
     34 H16        -9.0236    2.4727    6.2141 H         1 <0>         0.0567
     35 H17       -10.0949    3.0827    4.9302 H         1 <0>         0.0592
     36 H18       -10.2103    1.3854    5.4539 H         1 <0>         0.0577
     37 H19         0.2403   -0.1653    2.0223 H         1 <0>         0.4380
     38 H20         0.7262   -1.4996    1.1866 H         1 <0>         0.4346
     39 H21         1.6592   -0.1415    1.1850 H         1 <0>         0.4371
@<TRIPOS>BOND
     1    1    2 1
     2    1   20 1
     3    1   21 1
     4    1   22 1
     5    2    3 1
     6    2    4 1
     7    2   19 1
     8    4    8 1
     9    4    5 2
    10    5    6 1
    11    5   23 1
    12    6    7 1
    13    7    8 2
    14    7    9 1
    15    9   14 ar
    16    9   10 ar
    17   10   11 ar
    18   10   24 1
    19   11   12 ar
    20   11   25 1
    21   12   13 ar
    22   12   15 1
    23   13   14 ar
    24   13   26 1
    25   14   27 1
    26   15   16 1
    27   15   28 1
    28   15   29 1
    29   16   17 1
    30   16   18 1
    31   16   30 1
    32   17   31 1
    33   17   32 1
    34   17   33 1
    35   18   34 1
    36   18   35 1
    37   18   36 1
    38   19   37 1
    39   19   38 1
    40   19   39 1
@<TRIPOS>MOLECULE
ZINC70840782
   30    31     0     0     0
SMALL
USER_CHARGES

@<TRIPOS>ATOM
      1 C1         -0.0187    1.5258    0.0104 C.3       1 <0>        -0.1799
      2 C2          0.0021   -0.0041    0.0020 C.3       1 <0>         0.1155
      3 H1          0.5123   -0.3556   -0.8948 H         1 <0>         0.1505
      4 C3          0.7309   -0.5033    1.2229 C.2       1 <0>         0.0024
      5 C4          2.0863   -0.6103    1.2105 C.2       1 <0>        -0.1799
      6 S1          2.3834   -1.2290    2.8621 S.3       1 <0>         0.0983
      7 C5          0.6749   -1.2774    3.3870 C.2       1 <0>         0.1871
      8 N1          0.0590   -0.8303    2.3016 N.2       1 <0>        -0.5368
      9 C6          0.1032   -1.6976    4.6844 C.ar      1 <0>        -0.0424
     10 C7         -1.2772   -1.6632    4.8860 C.ar      1 <0>        -0.0664
     11 C8         -1.8042   -2.0566    6.0988 C.ar      1 <0>        -0.1203
     12 C9         -0.9672   -2.4841    7.1141 C.ar      1 <0>        -0.0831
     13 C10         0.4023   -2.5201    6.9208 C.ar      1 <0>        -0.1132
     14 C11         0.9415   -2.1357    5.7104 C.ar      1 <0>        -0.0836
     15 N2         -1.3761   -0.5125    0.0124 N.4       1 <0>        -0.5005
     16 C12        -2.0500   -0.1262   -1.2343 C.3       1 <0>        -0.0521
     17 H2          1.0039    1.9031    0.0027 H         1 <0>         0.1063
     18 H3         -0.5459    1.8868   -0.8726 H         1 <0>         0.0897
     19 H4         -0.5289    1.8773    0.9072 H         1 <0>         0.0838
     20 H5          2.7887   -0.3847    0.4219 H         1 <0>         0.2095
     21 H6         -1.9315   -1.3290    4.0944 H         1 <0>         0.1308
     22 H7         -2.8723   -2.0304    6.2561 H         1 <0>         0.1361
     23 H8         -1.3847   -2.7906    8.0618 H         1 <0>         0.1360
     24 H9          1.0503   -2.8545    7.7175 H         1 <0>         0.1386
     25 H10         2.0103   -2.1692    5.5590 H         1 <0>         0.1292
     26 H11        -1.3629   -1.5185    0.0898 H         1 <0>         0.4316
     27 H12        -2.0643    0.9605   -1.3179 H         1 <0>         0.1255
     28 H13        -1.5132   -0.5489   -2.0836 H         1 <0>         0.1243
     29 H14        -3.0726   -0.5034   -1.2266 H         1 <0>         0.1285
     30 H15        -1.8730   -0.1212    0.7986 H         1 <0>         0.4346
@<TRIPOS>BOND
     1    1    2 1
     2    1   17 1
     3    1   18 1
     4    1   19 1
     5    2    3 1
     6    2    4 1
     7    2   15 1
     8    4    8 1
     9    4    5 2
    10    5    6 1
    11    5   20 1
    12    6    7 1
    13    7    8 2
    14    7    9 1
    15    9   14 ar
    16    9   10 ar
    17   10   11 ar
    18   10   21 1
    19   11   12 ar
    20   11   22 1
    21   12   13 ar
    22   12   23 1
    23   13   14 ar
    24   13   24 1
    25   14   25 1
    26   15   16 1
    27   15   26 1
    28   15   30 1
    29   16   27 1
    30   16   28 1
    31   16   29 1
@<TRIPOS>MOLECULE
ZINC94902782
   39    40     0     0     0
SMALL
USER_CHARGES

@<TRIPOS>ATOM
      1 C1         -0.0187    1.5258    0.0104 C.3       1 <0>        -0.1745
      2 C2          0.0021   -0.0041    0.0020 C.3       1 <0>         0.1093
      3 H1          0.5123   -0.3556   -0.8948 H         1 <0>         0.1574
      4 C3          0.7309   -0.5033    1.2229 C.2       1 <0>         0.0427
      5 C4          0.1263   -1.3835    2.0645 C.2       1 <0>        -0.2659
      6 S1          1.4142   -1.6113    3.2844 S.3       1 <0>         0.0969
      7 C5          2.6137   -0.5124    2.5423 C.2       1 <0>         0.2044
      8 N1          1.9522   -0.0933    1.4727 N.2       1 <0>        -0.5050
      9 C6          3.9781   -0.1680    2.9965 C.ar      1 <0>        -0.0548
     10 C7          4.7554    0.7289    2.2626 C.ar      1 <0>        -0.0540
     11 C8          6.0277    1.0460    2.6918 C.ar      1 <0>        -0.1208
     12 C9          6.5334    0.4765    3.8468 C.ar      1 <0>        -0.0346
     13 C10         5.7680   -0.4138    4.5787 C.ar      1 <0>        -0.1143
     14 C11         4.4917   -0.7341    4.1640 C.ar      1 <0>        -0.0781
     15 C12         7.9242    0.8270    4.3094 C.3       1 <0>        -0.0888
     16 C13         7.8617    2.0405    5.2392 C.3       1 <0>        -0.0899
     17 C14         7.0937    1.6704    6.5097 C.3       1 <0>        -0.1543
     18 C15         9.2818    2.4730    5.6094 C.3       1 <0>        -0.1510
     19 N2         -1.3761   -0.5125    0.0124 N.4       1 <0>        -0.6348
     20 H2          1.0039    1.9031    0.0027 H         1 <0>         0.1149
     21 H3         -0.5459    1.8868   -0.8726 H         1 <0>         0.0879
     22 H4         -0.5289    1.8773    0.9072 H         1 <0>         0.0804
     23 H5         -0.8587   -1.8231    2.0112 H         1 <0>         0.1971
     24 H6          4.3621    1.1736    1.3604 H         1 <0>         0.1361
     25 H7          6.6304    1.7400    2.1247 H         1 <0>         0.1361
     26 H8          6.1687   -0.8552    5.4793 H         1 <0>         0.1372
     27 H9          3.8933   -1.4253    4.7390 H         1 <0>         0.1279
     28 H10         8.3530   -0.0197    4.8454 H         1 <0>         0.0807
     29 H11         8.5457    1.0628    3.4456 H         1 <0>         0.0806
     30 H12         7.3525    2.8604    4.7328 H         1 <0>         0.0718
     31 H13         7.0492    2.5349    7.1722 H         1 <0>         0.0574
     32 H14         6.0820    1.3623    6.2460 H         1 <0>         0.0556
     33 H15         7.6029    0.8505    7.0162 H         1 <0>         0.0572
     34 H16         9.8289    2.7366    4.7043 H         1 <0>         0.0570
     35 H17         9.2373    3.3375    6.2718 H         1 <0>         0.0590
     36 H18         9.7909    1.6530    6.1159 H         1 <0>         0.0576
     37 H19        -1.8641   -0.1783   -0.8050 H         1 <0>         0.4437
     38 H20        -1.3624   -1.5214    0.0069 H         1 <0>         0.4367
     39 H21        -1.8484   -0.1871    0.8426 H         1 <0>         0.4350
@<TRIPOS>BOND
     1    1    2 1
     2    1   20 1
     3    1   21 1
     4    1   22 1
     5    2    3 1
     6    2    4 1
     7    2   19 1
     8    4    8 1
     9    4    5 2
    10    5    6 1
    11    5   23 1
    12    6    7 1
    13    7    8 2
    14    7    9 1
    15    9   14 ar
    16    9   10 ar
    17   10   11 ar
    18   10   24 1
    19   11   12 ar
    20   11   25 1
    21   12   13 ar
    22   12   15 1
    23   13   14 ar
    24   13   26 1
    25   14   27 1
    26   15   16 1
    27   15   28 1
    28   15   29 1
    29   16   17 1
    30   16   18 1
    31   16   30 1
    32   17   31 1
    33   17   32 1
    34   17   33 1
    35   18   34 1
    36   18   35 1
    37   18   36 1
    38   19   37 1
    39   19   38 1
    40   19   39 1
@<TRIPOS>MOLECULE
ZINC70840788
   30    31     0     0     0
SMALL
USER_CHARGES

@<TRIPOS>ATOM
      1 C1         -0.0187    1.5258    0.0104 C.3       1 <0>        -0.1798
      2 C2          0.0021   -0.0041    0.0020 C.3       1 <0>         0.1155
      3 H1          0.5123   -0.3556   -0.8948 H         1 <0>         0.1504
      4 C3         -1.4117   -0.5257    0.0127 C.2       1 <0>         0.0025
      5 C4         -2.0955   -0.6636   -1.1543 C.2       1 <0>        -0.1801
      6 S1         -3.6551   -1.2968   -0.5500 S.3       1 <0>         0.0982
      7 C5         -3.2273   -1.3085    1.1861 C.2       1 <0>         0.1874
      8 N1         -1.9831   -0.8526    1.1479 N.2       1 <0>        -0.5370
      9 C6         -4.0403   -1.7209    2.3503 C.ar      1 <0>        -0.0425
     10 C7         -3.5091   -1.6443    3.6384 C.ar      1 <0>        -0.0664
     11 C8         -4.2729   -2.0307    4.7204 C.ar      1 <0>        -0.1204
     12 C9         -5.5627   -2.4938    4.5304 C.ar      1 <0>        -0.0831
     13 C10        -6.0951   -2.5726    3.2558 C.ar      1 <0>        -0.1132
     14 C11        -5.3441   -2.1830    2.1660 C.ar      1 <0>        -0.0835
     15 N2          0.7126   -0.4907    1.1921 N.4       1 <0>        -0.5005
     16 C12         2.1220   -0.0825    1.1220 C.3       1 <0>        -0.0521
     17 H2          1.0039    1.9031    0.0027 H         1 <0>         0.0897
     18 H3         -0.5459    1.8868   -0.8726 H         1 <0>         0.1063
     19 H4         -0.5289    1.8773    0.9072 H         1 <0>         0.0838
     20 H5         -1.7835   -0.4498   -2.1659 H         1 <0>         0.2096
     21 H6         -2.5021   -1.2837    3.7880 H         1 <0>         0.1309
     22 H7         -3.8630   -1.9719    5.7178 H         1 <0>         0.1361
     23 H8         -6.1564   -2.7953    5.3806 H         1 <0>         0.1360
     24 H9         -7.1025   -2.9353    3.1141 H         1 <0>         0.1386
     25 H10        -5.7626   -2.2402    1.1720 H         1 <0>         0.1292
     26 H11         0.2896   -0.0986    2.0201 H         1 <0>         0.4346
     27 H12         2.5788   -0.5061    0.2276 H         1 <0>         0.1242
     28 H13         2.1837    1.0050    1.0814 H         1 <0>         0.1255
     29 H14         2.6492   -0.4436    2.0051 H         1 <0>         0.1284
     30 H15         0.6554   -1.4974    1.2298 H         1 <0>         0.4316
@<TRIPOS>BOND
     1    1    2 1
     2    1   17 1
     3    1   18 1
     4    1   19 1
     5    2    3 1
     6    2    4 1
     7    2   15 1
     8    4    8 1
     9    4    5 2
    10    5    6 1
    11    5   20 1
    12    6    7 1
    13    7    8 2
    14    7    9 1
    15    9   14 ar
    16    9   10 ar
    17   10   11 ar
    18   10   21 1
    19   11   12 ar
    20   11   22 1
    21   12   13 ar
    22   12   23 1
    23   13   14 ar
    24   13   24 1
    25   14   25 1
    26   15   16 1
    27   15   26 1
    28   15   30 1
    29   16   27 1
    30   16   28 1
    31   16   29 1
@<TRIPOS>MOLECULE
ZINC54418570
   35    36     0     0     0
SMALL
USER_CHARGES

@<TRIPOS>ATOM
      1 C1         -0.0178    1.4648    0.0101 C.3       1 <0>         0.0119
      2 N1          0.0021   -0.0041    0.0020 N.3       1 <0>        -0.5299
      3 C2          0.7062   -0.5275    1.1802 C.3       1 <0>         0.0227
      4 C3          2.1851   -0.1430    1.1032 C.3       1 <0>        -0.0097
      5 N2          2.8892   -0.6664    2.2814 N.4       1 <0>        -0.6350
      6 C4         -1.3597   -0.5486   -0.0825 C.3       1 <0>         0.1295
      7 C5         -1.9618   -0.1908   -1.4168 C.2       1 <0>         0.0534
      8 C6         -1.8996   -1.0722   -2.4502 C.2       1 <0>        -0.1842
      9 S1         -2.7425   -0.1446   -3.7261 S.3       1 <0>         0.0333
     10 C7         -3.0846    1.3116   -2.7464 C.2       1 <0>         0.1670
     11 N3         -2.5518    0.9696   -1.5818 N.2       1 <0>        -0.5017
     12 C8         -3.7795    2.5590   -3.1304 C.ar      1 <0>        -0.0282
     13 C9         -3.9363    3.5883   -2.2013 C.ar      1 <0>        -0.0695
     14 C10        -4.5857    4.7497   -2.5659 C.ar      1 <0>        -0.1208
     15 C11        -5.0813    4.8949   -3.8494 C.ar      1 <0>        -0.0929
     16 C12        -4.9296    3.8780   -4.7752 C.ar      1 <0>        -0.1156
     17 C13        -4.2762    2.7143   -4.4252 C.ar      1 <0>        -0.0891
     18 H1          1.0047    1.8421    0.0024 H         1 <0>         0.0658
     19 H2         -0.5450    1.8259   -0.8730 H         1 <0>         0.0910
     20 H3         -0.5280    1.8163    0.9069 H         1 <0>         0.0382
     21 H4          0.2673   -0.1040    2.0837 H         1 <0>         0.0596
     22 H5          0.6139   -1.6133    1.2060 H         1 <0>         0.0988
     23 H6          2.6240   -0.5665    0.1998 H         1 <0>         0.1436
     24 H7          2.2773    0.9428    1.0774 H         1 <0>         0.1337
     25 H8          2.8038   -1.6715    2.3052 H         1 <0>         0.4362
     26 H9          3.8645   -0.4128    2.2305 H         1 <0>         0.4416
     27 H10        -1.3244   -1.6331    0.0212 H         1 <0>         0.0958
     28 H11        -1.9698   -0.1268    0.7163 H         1 <0>         0.0609
     29 H12        -1.4622   -2.0588   -2.4898 H         1 <0>         0.1992
     30 H13        -3.5505    3.4759   -1.1988 H         1 <0>         0.1325
     31 H14        -4.7077    5.5470   -1.8477 H         1 <0>         0.1328
     32 H15        -5.5892    5.8058   -4.1298 H         1 <0>         0.1321
     33 H16        -5.3190    3.9974   -5.7754 H         1 <0>         0.1348
     34 H17        -4.1538    1.9233   -5.1503 H         1 <0>         0.1276
     35 H18         2.4829   -0.2744    3.1177 H         1 <0>         0.4349
@<TRIPOS>BOND
     1    1    2 1
     2    1   18 1
     3    1   19 1
     4    1   20 1
     5    2    3 1
     6    2    6 1
     7    3    4 1
     8    3   21 1
     9    3   22 1
    10    4    5 1
    11    4   23 1
    12    4   24 1
    13    5   25 1
    14    5   26 1
    15    5   35 1
    16    6    7 1
    17    6   27 1
    18    6   28 1
    19    7   11 1
    20    7    8 2
    21    8    9 1
    22    8   29 1
    23    9   10 1
    24   10   11 2
    25   10   12 1
    26   12   17 ar
    27   12   13 ar
    28   13   14 ar
    29   13   30 1
    30   14   15 ar
    31   14   31 1
    32   15   16 ar
    33   15   32 1
    34   16   17 ar
    35   16   33 1
    36   17   34 1
@<TRIPOS>MOLECULE
ZINC05177788
   20    21     0     0     0
SMALL
USER_CHARGES
2-(3-chlorophenyl)thiazole-4-carbonyl chloride
@<TRIPOS>ATOM
      1 C1         -3.5010   -1.3603    0.0264 C.ar      1 <0>        -0.1038
      2 C2         -2.4446   -0.4723    0.0271 C.ar      1 <0>        -0.0630
      3 C3         -1.1344   -0.9509    0.0071 C.ar      1 <0>        -0.0077
      4 C4         -0.9001   -2.3263   -0.0024 C.ar      1 <0>        -0.0851
      5 C5         -1.9653   -3.2048    0.0023 C.ar      1 <0>        -0.0342
      6 C6         -3.2634   -2.7227    0.0169 C.ar      1 <0>        -0.0870
      7 Cl1        -1.6768   -4.9166   -0.0094 Cl        1 <0>        -0.0554
      8 C7          0.0021   -0.0041    0.0020 C.2       1 <0>         0.1376
      9 N1         -0.0158    1.3147    0.0093 N.2       1 <0>        -0.4461
     10 C8          1.1226    1.9947    0.0021 C.2       1 <0>        -0.0230
     11 C9          2.3176    1.2923   -0.0131 C.2       1 <0>        -0.1492
     12 S1          1.7535   -0.3502   -0.0166 S.3       1 <0>         0.1444
     13 C10         1.1175    3.4614    0.0095 C.2       1 <0>         0.4740
     14 O1          2.1667    4.0721    0.0023 O.2       1 <0>        -0.4061
     15 Cl2        -0.3889    4.3240    0.0286 Cl        1 <0>        -0.0838
     16 H1         -4.5157   -0.9904    0.0378 H         1 <0>         0.1446
     17 H2         -2.6319    0.5912    0.0391 H         1 <0>         0.1457
     18 H3          0.1120   -2.7030   -0.0131 H         1 <0>         0.1385
     19 H4         -4.0937   -3.4134    0.0213 H         1 <0>         0.1422
     20 H5          3.3305    1.6670   -0.0208 H         1 <0>         0.2173
@<TRIPOS>BOND
     1    1    6 ar
     2    1    2 ar
     3    1   16 1
     4    2    3 ar
     5    2   17 1
     6    3    4 ar
     7    3    8 1
     8    4    5 ar
     9    4   18 1
    10    5    6 ar
    11    5    7 1
    12    6   19 1
    13    8   12 1
    14    8    9 2
    15    9   10 1
    16   10   11 2
    17   10   13 1
    18   11   12 1
    19   11   20 1
    20   13   14 2
    21   13   15 1
@<TRIPOS>MOLECULE
ZINC41010032
   36    38     0     0     0
SMALL
USER_CHARGES

@<TRIPOS>ATOM
      1 C1         -0.0129    1.3567   -0.2064 C.3       1 <0>        -0.1900
      2 C2         -0.0024   -0.1714   -0.1320 C.3       1 <0>        -0.0094
      3 N1          0.7133   -0.5978    1.0779 N.4       1 <0>        -0.5089
      4 C3          0.7234   -2.0651    1.1493 C.3       1 <0>         0.0781
      5 C4          1.4576   -2.5025    2.3905 C.2       1 <0>        -0.0139
      6 C5          0.7663   -2.7809    3.5284 C.2       1 <0>        -0.1821
      7 S1          2.1047   -3.2298    4.6265 S.3       1 <0>         0.0950
      8 C6          3.4349   -2.9986    3.4543 C.2       1 <0>         0.1884
      9 N2          2.7638   -2.6206    2.3738 N.2       1 <0>        -0.5004
     10 C7          4.8871   -3.1839    3.6374 C.ar      1 <0>        -0.0401
     11 C8          5.5257   -2.6599    4.7509 C.ar      1 <0>        -0.0580
     12 C9          6.8929   -2.8313    4.9295 C.ar      1 <0>        -0.1274
     13 C10         7.6427   -3.5155    4.0203 C.ar      1 <0>        -0.0611
     14 C11         7.0372   -4.0635    2.8764 C.ar      1 <0>        -0.0575
     15 C12         5.6437   -3.9045    2.6803 C.ar      1 <0>        -0.0117
     16 C13         5.0401   -4.4561    1.5419 C.ar      1 <0>        -0.1150
     17 C14         5.7983   -5.1426    0.6419 C.ar      1 <0>        -0.0983
     18 C15         7.1680   -5.3058    0.8362 C.ar      1 <0>        -0.1141
     19 C16         7.7894   -4.7726    1.9238 C.ar      1 <0>        -0.0947
     20 H1          1.0121    1.7259   -0.2415 H         1 <0>         0.0807
     21 H2         -0.5439    1.6732   -1.1042 H         1 <0>         0.1081
     22 H3         -0.5144    1.7599    0.6734 H         1 <0>         0.0804
     23 H4         -1.0274   -0.5405   -0.0970 H         1 <0>         0.1324
     24 H5          0.4991   -0.5746   -1.0119 H         1 <0>         0.1324
     25 H6          1.6621   -0.2562    1.0454 H         1 <0>         0.4313
     26 H7         -0.3016   -2.4342    1.1844 H         1 <0>         0.1454
     27 H8          1.2249   -2.4682    0.2695 H         1 <0>         0.1444
     28 H9         -0.2964   -2.7412    3.7167 H         1 <0>         0.2098
     29 H10         4.9549   -2.1127    5.4865 H         1 <0>         0.1314
     30 H11         7.3699   -2.4146    5.8043 H         1 <0>         0.1392
     31 H12         8.7041   -3.6366    4.1788 H         1 <0>         0.1397
     32 H13         3.9790   -4.3378    1.3791 H         1 <0>         0.1268
     33 H14         5.3306   -5.5666   -0.2345 H         1 <0>         0.1265
     34 H15         7.7471   -5.8546    0.1082 H         1 <0>         0.1307
     35 H16         8.8523   -4.9059    2.0613 H         1 <0>         0.1362
     36 H17         0.2491   -0.2247    1.8923 H         1 <0>         0.4258
@<TRIPOS>BOND
     1    1    2 1
     2    1   20 1
     3    1   21 1
     4    1   22 1
     5    2    3 1
     6    2   23 1
     7    2   24 1
     8    3    4 1
     9    3   25 1
    10    3   36 1
    11    4    5 1
    12    4   26 1
    13    4   27 1
    14    5    9 1
    15    5    6 2
    16    6    7 1
    17    6   28 1
    18    7    8 1
    19    8    9 2
    20    8   10 1
    21   10   15 ar
    22   10   11 ar
    23   11   12 ar
    24   11   29 1
    25   12   13 ar
    26   12   30 1
    27   13   14 ar
    28   13   31 1
    29   14   19 ar
    30   14   15 ar
    31   15   16 ar
    32   16   17 ar
    33   16   32 1
    34   17   18 ar
    35   17   33 1
    36   18   19 ar
    37   18   34 1
    38   19   35 1
@<TRIPOS>MOLECULE
ZINC83251802
   29    30     0     0     0
SMALL
USER_CHARGES

@<TRIPOS>ATOM
      1 C1         -0.0173    1.4248    0.0099 C.3       1 <0>         0.0235
      2 O1          0.0021   -0.0041    0.0020 O.3       1 <0>        -0.3123
      3 C2          0.6256   -0.6182    1.0411 C.ar      1 <0>         0.1508
      4 C3          1.2017    0.1423    2.0503 C.ar      1 <0>        -0.2078
      5 C4          1.8352   -0.4770    3.1062 C.ar      1 <0>        -0.0472
      6 C5          1.8973   -1.8706    3.1604 C.ar      1 <0>        -0.0598
      7 C6          1.3169   -2.6315    2.1440 C.ar      1 <0>        -0.0274
      8 C7          0.6803   -2.0048    1.0943 C.ar      1 <0>        -0.1529
      9 C8          2.5761   -2.5387    4.2907 C.2       1 <0>         0.1687
     10 N1          2.7473   -3.8327    4.5235 N.2       1 <0>        -0.4981
     11 C9          3.3838   -4.2544    5.5914 C.2       1 <0>         0.0603
     12 C10         3.8810   -3.3566    6.4823 C.2       1 <0>        -0.1806
     13 S1          3.3944   -1.8194    5.7084 S.3       1 <0>         0.0082
     14 C11         3.5624   -5.7317    5.8294 C.3       1 <0>         0.1287
     15 N2          2.3705   -6.2672    6.5006 N.3       1 <0>        -0.5339
     16 N3          2.5078   -7.6936    6.7468 N.3       1 <0>        -0.7012
     17 H1          1.0053    1.8021    0.0021 H         1 <0>         0.0591
     18 H2         -0.5445    1.7859   -0.8732 H         1 <0>         0.1040
     19 H3         -0.5275    1.7763    0.9067 H         1 <0>         0.0591
     20 H4          1.1536    1.2204    2.0075 H         1 <0>         0.1379
     21 H5          2.2833    0.1151    3.8905 H         1 <0>         0.1307
     22 H6          1.3632   -3.7098    2.1822 H         1 <0>         0.1434
     23 H7          0.2272   -2.5928    0.3098 H         1 <0>         0.1410
     24 H8          4.4229   -3.5247    7.4013 H         1 <0>         0.1996
     25 H9          3.7006   -6.2394    4.8747 H         1 <0>         0.0577
     26 H10         4.4377   -5.8953    6.4580 H         1 <0>         0.0873
     27 H11         1.5365   -6.0708    5.9678 H         1 <0>         0.3544
     28 H12         3.3418   -7.8900    7.2796 H         1 <0>         0.3517
     29 H13         1.6891   -8.0614    7.2078 H         1 <0>         0.3550
@<TRIPOS>BOND
     1    1    2 1
     2    1   17 1
     3    1   18 1
     4    1   19 1
     5    2    3 1
     6    3    8 ar
     7    3    4 ar
     8    4    5 ar
     9    4   20 1
    10    5    6 ar
    11    5   21 1
    12    6    7 ar
    13    6    9 1
    14    7    8 ar
    15    7   22 1
    16    8   23 1
    17    9   13 1
    18    9   10 2
    19   10   11 1
    20   11   12 2
    21   11   14 1
    22   12   13 1
    23   12   24 1
    24   14   15 1
    25   14   25 1
    26   14   26 1
    27   15   16 1
    28   15   27 1
    29   16   28 1
    30   16   29 1
@<TRIPOS>MOLECULE
ZINC22145598
   25    26     0     0     0
SMALL
USER_CHARGES
[2-(3-bromophenyl)thiazol-4-yl]methylhydrazine
@<TRIPOS>ATOM
      1 C1         -3.4917   -1.3829    0.0266 C.ar      1 <0>        -0.1114
      2 C2         -2.4414   -0.4880    0.0276 C.ar      1 <0>        -0.0571
      3 C3         -1.1278   -0.9580    0.0073 C.ar      1 <0>        -0.0082
      4 C4         -0.8846   -2.3321   -0.0023 C.ar      1 <0>        -0.0653
      5 C5         -1.9439   -3.2173    0.0026 C.ar      1 <0>        -0.0902
      6 C6         -3.2449   -2.7438    0.0170 C.ar      1 <0>        -0.0717
      7 Br1        -1.6174   -5.0798   -0.0098 Br        1 <0>        -0.0361
      8 C7          0.0021   -0.0041    0.0020 C.2       1 <0>         0.1476
      9 N1         -0.0159    1.3214    0.0093 N.2       1 <0>        -0.4910
     10 C8          1.0962    2.0180    0.0024 C.2       1 <0>         0.0515
     11 C9          2.2960    1.3786   -0.0125 C.2       1 <0>        -0.1655
     12 S1          1.7604   -0.3278   -0.0165 S.3       1 <0>         0.0287
     13 C10         1.0435    3.5240    0.0105 C.3       1 <0>         0.1305
     14 N2          0.8923    4.0161   -1.3653 N.3       1 <0>        -0.5153
     15 N3          0.8377    5.4688   -1.3961 N.3       1 <0>        -0.6455
     16 H1         -4.5089   -1.0199    0.0379 H         1 <0>         0.1426
     17 H2         -2.6357    0.5743    0.0397 H         1 <0>         0.1417
     18 H3          0.1299   -2.7022   -0.0133 H         1 <0>         0.1378
     19 H4         -4.0705   -3.4401    0.0212 H         1 <0>         0.1407
     20 H5          3.2954    1.7878   -0.0195 H         1 <0>         0.2043
     21 H6          0.1875    3.8577    0.6154 H         1 <0>         0.0512
     22 H7          1.9742    3.9212    0.4418 H         1 <0>         0.1013
     23 H8          0.0782    3.6143   -1.8056 H         1 <0>         0.3172
     24 H9          0.7245    5.8095   -2.4359 H         1 <0>         0.3570
     25 H10        -0.0198    5.8162   -0.8010 H         1 <0>         0.3053
@<TRIPOS>BOND
     1    1    6 ar
     2    1    2 ar
     3    1   16 1
     4    2    3 ar
     5    2   17 1
     6    3    4 ar
     7    3    8 1
     8    4    5 ar
     9    4   18 1
    10    5    6 ar
    11    5    7 1
    12    6   19 1
    13    8   12 1
    14    8    9 2
    15    9   10 1
    16   10   11 2
    17   10   13 1
    18   11   12 1
    19   11   20 1
    20   13   14 1
    21   13   21 1
    22   13   22 1
    23   14   15 1
    24   14   23 1
    25   15   24 1
    26   15   25 1
@<TRIPOS>MOLECULE
ZINC22145598
   26    27     0     0     0
SMALL
USER_CHARGES
[2-(3-bromophenyl)thiazol-4-yl]methylhydrazine
@<TRIPOS>ATOM
      1 C1         -3.4917   -1.3829    0.0266 C.ar      1 <0>        -0.1115
      2 C2         -2.4414   -0.4880    0.0276 C.ar      1 <0>        -0.0511
      3 C3         -1.1278   -0.9580    0.0073 C.ar      1 <0>        -0.0276
      4 C4         -0.8846   -2.3321   -0.0023 C.ar      1 <0>        -0.0606
      5 C5         -1.9439   -3.2173    0.0026 C.ar      1 <0>        -0.0915
      6 C6         -3.2449   -2.7438    0.0170 C.ar      1 <0>        -0.0608
      7 Br1        -1.6174   -5.0798   -0.0098 Br        1 <0>        -0.0257
      8 C7          0.0021   -0.0041    0.0020 C.2       1 <0>         0.1741
      9 N1         -0.0159    1.3214    0.0093 N.2       1 <0>        -0.4904
     10 C8          1.0962    2.0180    0.0024 C.2       1 <0>         0.0460
     11 C9          2.2960    1.3786   -0.0125 C.2       1 <0>        -0.1976
     12 S1          1.7604   -0.3278   -0.0165 S.3       1 <0>         0.0771
     13 C10         1.0435    3.5240    0.0105 C.3       1 <0>         0.0837
     14 N2          0.8923    4.0161   -1.3653 N.3       1 <0>        -0.4707
     15 N3          0.8377    5.4688   -1.3961 N.4       1 <0>        -0.5530
     16 H1         -4.5089   -1.0199    0.0379 H         1 <0>         0.1459
     17 H2         -2.6357    0.5743    0.0397 H         1 <0>         0.1419
     18 H3          0.1299   -2.7022   -0.0133 H         1 <0>         0.1380
     19 H4         -4.0705   -3.4401    0.0212 H         1 <0>         0.1450
     20 H5          3.2954    1.7878   -0.0195 H         1 <0>         0.2042
     21 H6          0.1875    3.8577    0.6154 H         1 <0>         0.1215
     22 H7          1.9742    3.9212    0.4418 H         1 <0>         0.0887
     23 H8          1.7483    3.6824   -1.9702 H         1 <0>         0.3997
     24 H9          0.7245    5.8095   -2.4359 H         1 <0>         0.4747
     25 H10         1.7670    5.8796   -0.9747 H         1 <0>         0.4287
     26 H11        -0.0198    5.8162   -0.8010 H         1 <0>         0.4714
@<TRIPOS>BOND
     1    1    6 ar
     2    1    2 ar
     3    1   16 1
     4    2    3 ar
     5    2   17 1
     6    3    4 ar
     7    3    8 1
     8    4    5 ar
     9    4   18 1
    10    5    6 ar
    11    5    7 1
    12    6   19 1
    13    8   12 1
    14    8    9 2
    15    9   10 1
    16   10   11 2
    17   10   13 1
    18   11   12 1
    19   11   20 1
    20   13   14 1
    21   13   21 1
    22   13   22 1
    23   14   15 1
    24   14   23 1
    25   15   24 1
    26   15   25 1
    27   15   26 1
@<TRIPOS>MOLECULE
ZINC22145598
   26    27     0     0     0
SMALL
USER_CHARGES
[2-(3-bromophenyl)thiazol-4-yl]methylhydrazine
@<TRIPOS>ATOM
      1 C1         -3.4917   -1.3829    0.0266 C.ar      1 <0>        -0.1111
      2 C2         -2.4414   -0.4880    0.0276 C.ar      1 <0>        -0.0509
      3 C3         -1.1278   -0.9580    0.0073 C.ar      1 <0>        -0.0338
      4 C4         -0.8846   -2.3321   -0.0023 C.ar      1 <0>        -0.0586
      5 C5         -1.9439   -3.2173    0.0026 C.ar      1 <0>        -0.0914
      6 C6         -3.2449   -2.7438    0.0170 C.ar      1 <0>        -0.0571
      7 Br1        -1.6174   -5.0798   -0.0098 Br        1 <0>        -0.0218
      8 C7          0.0021   -0.0041    0.0020 C.2       1 <0>         0.1791
      9 N1         -0.0159    1.3214    0.0093 N.2       1 <0>        -0.5062
     10 C8          1.0962    2.0180    0.0024 C.2       1 <0>        -0.0082
     11 C9          2.2960    1.3786   -0.0125 C.2       1 <0>        -0.1760
     12 S1          1.7604   -0.3278   -0.0165 S.3       1 <0>         0.1031
     13 C10         1.0435    3.5240    0.0105 C.3       1 <0>         0.0955
     14 N2          0.8923    4.0161   -1.3653 N.4       1 <0>        -0.4038
     15 N3          0.8377    5.4688   -1.3961 N.3       1 <0>        -0.6411
     16 H1         -4.5089   -1.0199    0.0379 H         1 <0>         0.1471
     17 H2         -2.6357    0.5743    0.0397 H         1 <0>         0.1412
     18 H3          0.1299   -2.7022   -0.0133 H         1 <0>         0.1387
     19 H4         -4.0705   -3.4401    0.0212 H         1 <0>         0.1465
     20 H5          3.2954    1.7878   -0.0195 H         1 <0>         0.2125
     21 H6          0.1875    3.8577    0.6154 H         1 <0>         0.1393
     22 H7          1.9742    3.9212    0.4418 H         1 <0>         0.1499
     23 H8          1.7483    3.6824   -1.9702 H         1 <0>         0.4637
     24 H9          0.7245    5.8095   -2.4359 H         1 <0>         0.4080
     25 H10        -0.0198    5.8162   -0.8010 H         1 <0>         0.4058
     26 H11        -0.0384    3.6189   -1.7966 H         1 <0>         0.4296
@<TRIPOS>BOND
     1    1    6 ar
     2    1    2 ar
     3    1   16 1
     4    2    3 ar
     5    2   17 1
     6    3    4 ar
     7    3    8 1
     8    4    5 ar
     9    4   18 1
    10    5    6 ar
    11    5    7 1
    12    6   19 1
    13    8   12 1
    14    8    9 2
    15    9   10 1
    16   10   11 2
    17   10   13 1
    18   11   12 1
    19   11   20 1
    20   13   14 1
    21   13   21 1
    22   13   22 1
    23   14   15 1
    24   14   23 1
    25   14   26 1
    26   15   24 1
    27   15   25 1
@<TRIPOS>MOLECULE
ZINC11850454
   30    31     0     0     0
SMALL
USER_CHARGES
(1R)-1-[2-(o-tolyl)thiazol-4-yl]ethanamine
@<TRIPOS>ATOM
      1 C1          0.4787    5.3579    2.3945 C.3       1 <0>        -0.1122
      2 C2         -0.9261    5.6948    2.8235 C.ar      1 <0>        -0.0369
      3 C3         -1.2048    6.9315    3.3687 C.ar      1 <0>        -0.1205
      4 C4         -2.4926    7.2400    3.7686 C.ar      1 <0>        -0.0806
      5 C5         -3.5102    6.3143    3.6198 C.ar      1 <0>        -0.1197
      6 C6         -3.2460    5.0766    3.0709 C.ar      1 <0>        -0.0781
      7 C7         -1.9488    4.7590    2.6654 C.ar      1 <0>        -0.0455
      8 C8         -1.6585    3.4342    2.0762 C.2       1 <0>         0.1893
      9 N1         -0.9622    3.1309    0.9897 N.2       1 <0>        -0.5045
     10 C9         -0.8028    1.8856    0.6082 C.2       1 <0>        -0.0133
     11 C10        -1.3623    0.8788    1.3306 C.2       1 <0>        -0.1763
     12 S1         -2.1515    1.8098    2.6378 S.3       1 <0>         0.0915
     13 C11        -0.0062    1.5722   -0.6321 C.3       1 <0>         0.1218
     14 H1         -0.0585    0.5029   -0.8370 H         1 <0>         0.1508
     15 C12        -0.5830    2.3477   -1.8182 C.3       1 <0>        -0.1747
     16 H2          0.5920    5.5608    1.3296 H         1 <0>         0.0772
     17 H3          1.1864    5.9664    2.9576 H         1 <0>         0.0737
     18 H4          0.6739    4.3028    2.5861 H         1 <0>         0.0580
     19 H5         -0.4150    7.6584    3.4875 H         1 <0>         0.1356
     20 H6         -2.7047    8.2078    4.1985 H         1 <0>         0.1358
     21 H7         -4.5135    6.5612    3.9343 H         1 <0>         0.1375
     22 H8         -4.0412    4.3551    2.9550 H         1 <0>         0.1301
     23 H9         -1.3363   -0.1877    1.1623 H         1 <0>         0.2094
     24 H10        -0.0068    2.1210   -2.7152 H         1 <0>         0.0854
     25 H11        -1.6225    2.0575   -1.9711 H         1 <0>         0.1031
     26 H12        -0.5307    3.4169   -1.6132 H         1 <0>         0.0896
     27 H13         1.9627    1.7047   -1.2189 H         1 <0>         0.4391
     28 H14         1.4699    2.9511   -0.2342 H         1 <0>         0.4391
     29 N2          1.4002    1.9494   -0.4056 N.4       1 <0>        -0.6432
     30 H15         1.7575    1.4436    0.4134 H         1 <0>         0.4384
@<TRIPOS>BOND
     1    1    2 1
     2    1   16 1
     3    1   17 1
     4    1   18 1
     5    2    7 ar
     6    2    3 ar
     7    3    4 ar
     8    3   19 1
     9    4    5 ar
    10    4   20 1
    11    5    6 ar
    12    5   21 1
    13    6    7 ar
    14    6   22 1
    15    7    8 1
    16    8   12 1
    17    8    9 2
    18    9   10 1
    19   10   11 2
    20   10   13 1
    21   11   12 1
    22   11   23 1
    23   13   14 1
    24   13   15 1
    25   13   29 1
    26   15   24 1
    27   15   25 1
    28   15   26 1
    29   27   29 1
    30   28   29 1
    31   29   30 1
@<TRIPOS>MOLECULE
ZINC11850455
   30    31     0     0     0
SMALL
USER_CHARGES
(1S)-1-[2-(o-tolyl)thiazol-4-yl]ethanamine
@<TRIPOS>ATOM
      1 C1         -2.7763    0.9376   -5.5874 C.3       1 <0>        -0.1143
      2 C2         -1.7346    1.5029   -6.5182 C.ar      1 <0>        -0.0298
      3 C3         -2.0238    1.6761   -7.8562 C.ar      1 <0>        -0.1213
      4 C4         -1.0666    2.1892   -8.7130 C.ar      1 <0>        -0.0784
      5 C5          0.1841    2.5372   -8.2341 C.ar      1 <0>        -0.1225
      6 C6          0.4841    2.3740   -6.8976 C.ar      1 <0>        -0.0768
      7 C7         -0.4772    1.8569   -6.0278 C.ar      1 <0>        -0.0514
      8 C8         -0.1624    1.6793   -4.5940 C.2       1 <0>         0.2040
      9 N1         -0.8763    2.0135   -3.5282 N.2       1 <0>        -0.4922
     10 C9         -0.4361    1.7832   -2.3137 C.2       1 <0>         0.0373
     11 C10         0.7691    1.1804   -2.1328 C.2       1 <0>        -0.2580
     12 S1          1.2807    0.9497   -3.8309 S.3       1 <0>         0.0966
     13 C11        -1.2678    2.1805   -1.1214 C.3       1 <0>         0.1136
     14 H1         -2.1896    1.5989   -1.1114 H         1 <0>         0.1552
     15 C12        -1.6057    3.6702   -1.2089 C.3       1 <0>        -0.1755
     16 H2         -3.3065    1.7538   -5.0967 H         1 <0>         0.0814
     17 H3         -3.4840    0.3352   -6.1571 H         1 <0>         0.0736
     18 H4         -2.2920    0.3148   -4.8353 H         1 <0>         0.0604
     19 H5         -2.9981    1.4064   -8.2363 H         1 <0>         0.1367
     20 H6         -1.2965    2.3189   -9.7603 H         1 <0>         0.1360
     21 H7          0.9271    2.9373   -8.9081 H         1 <0>         0.1374
     22 H8          1.4606    2.6460   -6.5250 H         1 <0>         0.1295
     23 H9          1.2766    0.9143   -1.2174 H         1 <0>         0.1969
     24 H10        -0.6839    4.2518   -1.2190 H         1 <0>         0.0801
     25 H11        -2.1666    3.8624   -2.1235 H         1 <0>         0.1147
     26 H12        -2.2073    3.9575   -0.3466 H         1 <0>         0.0873
     27 H13        -0.3323    0.9350    0.2247 H         1 <0>         0.4387
     28 H14         0.3477    2.4495    0.1259 H         1 <0>         0.4366
     29 N2         -0.5285    1.9300    0.1283 N.4       1 <0>        -0.6438
     30 H15        -1.0983    2.2378    0.9251 H         1 <0>         0.4479
@<TRIPOS>BOND
     1    1    2 1
     2    1   16 1
     3    1   17 1
     4    1   18 1
     5    2    7 ar
     6    2    3 ar
     7    3    4 ar
     8    3   19 1
     9    4    5 ar
    10    4   20 1
    11    5    6 ar
    12    5   21 1
    13    6    7 ar
    14    6   22 1
    15    7    8 1
    16    8   12 1
    17    8    9 2
    18    9   10 1
    19   10   11 2
    20   10   13 1
    21   11   12 1
    22   11   23 1
    23   13   14 1
    24   13   15 1
    25   13   29 1
    26   15   24 1
    27   15   25 1
    28   15   26 1
    29   27   29 1
    30   28   29 1
    31   29   30 1
@<TRIPOS>MOLECULE
ZINC11851501
   34    36     0     0     0
SMALL
USER_CHARGES
[4-[4-(3,4-dichlorophenyl)thiazol-2-yl]phenyl]methanamine
@<TRIPOS>ATOM
      1 C1          1.1718    1.7833    0.0004 C.ar      1 <0>        -0.0860
      2 C2         -0.0126    1.0758    0.0080 C.ar      1 <0>        -0.0943
      3 C3         -1.2296    1.7586    0.0174 C.ar      1 <0>         0.0354
      4 C4         -1.2398    3.1540    0.0305 C.ar      1 <0>        -0.0733
      5 C5         -0.0484    3.8496    0.0228 C.ar      1 <0>        -0.0875
      6 C6          1.1548    3.1667    0.0081 C.ar      1 <0>        -0.1620
      7 C7          2.4523    3.9331   -0.0002 C.3       1 <0>         0.0510
      8 C8         -2.5029    1.0067    0.0193 C.2       1 <0>         0.1173
      9 N1         -3.7450    1.4631    0.0331 N.2       1 <0>        -0.4714
     10 C9         -4.7776    0.6416    0.0277 C.2       1 <0>         0.0960
     11 C10        -4.5606   -0.7119    0.0198 C.2       1 <0>        -0.1681
     12 S1         -2.7730   -0.7603    0.0115 S.3       1 <0>         0.0623
     13 C11        -6.1609    1.1778    0.0371 C.ar      1 <0>        -0.0158
     14 C12        -6.3768    2.5549    0.0451 C.ar      1 <0>        -0.0703
     15 C13        -7.6650    3.0493    0.0533 C.ar      1 <0>        -0.0984
     16 C14        -8.7427    2.1805    0.0541 C.ar      1 <0>        -0.0234
     17 C15        -8.5340    0.8110    0.0467 C.ar      1 <0>        -0.0300
     18 C16        -7.2482    0.3066    0.0321 C.ar      1 <0>        -0.0848
     19 Cl1        -9.8903   -0.2726    0.0483 Cl        1 <0>        -0.0354
     20 Cl2       -10.3609    2.8091    0.0651 Cl        1 <0>        -0.0366
     21 H1          2.1143    1.2562   -0.0118 H         1 <0>         0.1413
     22 H2          0.0021   -0.0041    0.0020 H         1 <0>         0.1402
     23 H3         -2.1784    3.6882    0.0416 H         1 <0>         0.1484
     24 H4         -0.0549    4.9296    0.0280 H         1 <0>         0.1411
     25 H5          2.3176    4.8814    0.5201 H         1 <0>         0.1433
     26 H6          3.2226    3.3488    0.5031 H         1 <0>         0.1403
     27 H7          2.1351    4.6742   -1.8945 H         1 <0>         0.4372
     28 H8          3.7289    4.7026   -1.4202 H         1 <0>         0.4407
     29 H9         -5.2722   -1.5243    0.0191 H         1 <0>         0.2099
     30 H10        -5.5370    3.2339    0.0444 H         1 <0>         0.1465
     31 H11        -7.8328    4.1162    0.0595 H         1 <0>         0.1487
     32 H12        -7.0860   -0.7611    0.0214 H         1 <0>         0.1451
     33 N2          2.8635    4.1658   -1.3959 N.4       1 <0>        -0.6463
     34 H13         3.0171    3.2617   -1.8577 H         1 <0>         0.4391
@<TRIPOS>BOND
     1    1    6 ar
     2    1    2 ar
     3    1   21 1
     4    2    3 ar
     5    2   22 1
     6    3    4 ar
     7    3    8 1
     8    4    5 ar
     9    4   23 1
    10    5    6 ar
    11    5   24 1
    12    6    7 1
    13    7   25 1
    14    7   26 1
    15    7   33 1
    16    8   12 1
    17    8    9 2
    18    9   10 1
    19   10   11 2
    20   10   13 1
    21   11   12 1
    22   11   29 1
    23   13   18 ar
    24   13   14 ar
    25   14   15 ar
    26   14   30 1
    27   15   16 ar
    28   15   31 1
    29   16   17 ar
    30   16   20 1
    31   17   18 ar
    32   17   19 1
    33   18   32 1
    34   27   33 1
    35   28   33 1
    36   33   34 1
@<TRIPOS>MOLECULE
ZINC00158873
   20    21     0     0     0
SMALL
USER_CHARGES
2-phenylthiazole-4-carbaldehyde
@<TRIPOS>ATOM
      1 C1          2.3776    1.4187   -0.0130 C.ar      1 <0>        -0.0979
      2 C2          1.1703    2.0941    0.0021 C.ar      1 <0>        -0.1170
      3 C3         -0.0168    1.3910    0.0097 C.ar      1 <0>        -0.0927
      4 C4          0.0021   -0.0041    0.0020 C.ar      1 <0>        -0.0211
      5 C5          1.2230   -0.6792   -0.0133 C.ar      1 <0>        -0.0699
      6 C6          2.4031    0.0355   -0.0207 C.ar      1 <0>        -0.1194
      7 C7         -1.2669   -0.7641    0.0105 C.2       1 <0>         0.1359
      8 N1         -1.4526   -2.0697    0.0054 N.2       1 <0>        -0.4592
      9 C8         -2.6825   -2.5663    0.0157 C.2       1 <0>        -0.0545
     10 C9         -3.7552   -1.6868    0.0318 C.2       1 <0>        -0.1636
     11 S1         -2.9436   -0.1515    0.0384 S.3       1 <0>         0.1073
     12 C10        -2.9036   -4.0143    0.0096 C.2       1 <0>         0.4183
     13 O1         -4.0341   -4.4555    0.0187 O.2       1 <0>        -0.4539
     14 H1          3.3041    1.9736   -0.0185 H         1 <0>         0.1299
     15 H2          1.1570    3.1740    0.0081 H         1 <0>         0.1327
     16 H3         -0.9587    1.9194    0.0170 H         1 <0>         0.1271
     17 H4          1.2442   -1.7590   -0.0189 H         1 <0>         0.1367
     18 H5          3.3488   -0.4859   -0.0329 H         1 <0>         0.1327
     19 H6         -4.8139   -1.9002    0.0413 H         1 <0>         0.2098
     20 H7         -2.0606   -4.6893   -0.0029 H         1 <0>         0.1187
@<TRIPOS>BOND
     1    1    6 ar
     2    1    2 ar
     3    1   14 1
     4    2    3 ar
     5    2   15 1
     6    3    4 ar
     7    3   16 1
     8    4    5 ar
     9    4    7 1
    10    5    6 ar
    11    5   17 1
    12    6   18 1
    13    7   11 1
    14    7    8 2
    15    8    9 1
    16    9   10 2
    17    9   12 1
    18   10   11 1
    19   10   19 1
    20   12   13 2
    21   12   20 1
@<TRIPOS>MOLECULE
ZINC01401158
   25    26     0     0     0
SMALL
USER_CHARGES

@<TRIPOS>ATOM
      1 C1         -0.0178    1.4608    0.0101 C.3       1 <0>         0.0857
      2 N1          0.0021   -0.0041    0.0020 N.am      1 <0>        -0.7178
      3 C2         -1.1558   -0.6938    0.0094 C.2       1 <0>         0.5889
      4 O1         -2.2173   -0.1000    0.0227 O.2       1 <0>        -0.5343
      5 C3         -1.1358   -2.1667    0.0013 C.2       1 <0>        -0.0141
      6 C4         -2.3070   -2.8770    0.0035 C.2       1 <0>        -0.1950
      7 S1         -1.7659   -4.4707   -0.0079 S.3       1 <0>         0.1841
      8 C5         -0.0120   -4.1435   -0.0152 C.2       1 <0>         0.1041
      9 N2          0.0161   -2.8232   -0.0137 N.2       1 <0>        -0.4560
     10 C6          1.1155   -5.1007   -0.0262 C.ar      1 <0>        -0.0097
     11 C7          2.4305   -4.6338   -0.0241 C.ar      1 <0>        -0.0600
     12 C8          3.4781   -5.5312   -0.0344 C.ar      1 <0>        -0.1086
     13 C9          3.2268   -6.8928   -0.0472 C.ar      1 <0>        -0.0192
     14 C10         1.9239   -7.3619   -0.0493 C.ar      1 <0>        -0.1057
     15 C11         0.8684   -6.4740   -0.0328 C.ar      1 <0>        -0.0818
     16 Cl1         4.5502   -8.0162   -0.0613 Cl        1 <0>        -0.0582
     17 H1          1.0048    1.8381    0.0023 H         1 <0>         0.0790
     18 H2         -0.5450    1.8219   -0.8730 H         1 <0>         0.0625
     19 H3         -0.5280    1.8123    0.9069 H         1 <0>         0.0626
     20 H4          0.8486   -0.4776   -0.0086 H         1 <0>         0.4110
     21 H5         -3.3218   -2.5075    0.0110 H         1 <0>         0.2119
     22 H6          2.6276   -3.5720   -0.0148 H         1 <0>         0.1451
     23 H7          4.4963   -5.1710   -0.0329 H         1 <0>         0.1434
     24 H8          1.7338   -8.4250   -0.0597 H         1 <0>         0.1442
     25 H9         -0.1473   -6.8409   -0.0296 H         1 <0>         0.1380
@<TRIPOS>BOND
     1    1    2 1
     2    1   17 1
     3    1   18 1
     4    1   19 1
     5    2    3 am
     6    2   20 1
     7    3    4 2
     8    3    5 1
     9    5    9 1
    10    5    6 2
    11    6    7 1
    12    6   21 1
    13    7    8 1
    14    8    9 2
    15    8   10 1
    16   10   15 ar
    17   10   11 ar
    18   11   12 ar
    19   11   22 1
    20   12   13 ar
    21   12   23 1
    22   13   14 ar
    23   13   16 1
    24   14   15 ar
    25   14   24 1
    26   15   25 1
@<TRIPOS>MOLECULE
ZINC00159235
   32    33     0     0     0
SMALL
USER_CHARGES

@<TRIPOS>ATOM
      1 C1         -0.0178    1.4648    0.0101 C.3       1 <0>        -0.0314
      2 N1          0.0021   -0.0041    0.0020 N.4       1 <0>        -0.1231
      3 C2          0.7126   -0.4907    1.1921 C.3       1 <0>        -0.0312
      4 C3         -1.3761   -0.5125    0.0124 C.3       1 <0>         0.0391
      5 C4         -2.0674   -0.1162   -1.2666 C.2       1 <0>        -0.0024
      6 C5         -2.1067   -0.9803   -2.3153 C.2       1 <0>        -0.2012
      7 S1         -3.0192   -0.0096   -3.5086 S.3       1 <0>         0.1105
      8 C6         -3.2480    1.4371   -2.4831 C.2       1 <0>         0.1841
      9 N2         -2.6373    1.0617   -1.3680 N.2       1 <0>        -0.5037
     10 C7         -3.9375    2.7077   -2.7934 C.ar      1 <0>        -0.0412
     11 C8         -3.9963    3.7240   -1.8387 C.ar      1 <0>        -0.0494
     12 C9         -4.6405    4.9074   -2.1340 C.ar      1 <0>        -0.1112
     13 C10        -5.2285    5.0880   -3.3747 C.ar      1 <0>        -0.0041
     14 C11        -5.1737    4.0830   -4.3257 C.ar      1 <0>        -0.1060
     15 C12        -4.5269    2.8976   -4.0440 C.ar      1 <0>        -0.0697
     16 Cl1        -6.0380    6.5799   -3.7389 Cl        1 <0>        -0.0417
     17 N3          0.6826   -0.4730   -1.1943 N.3       1 <0>        -0.6443
     18 H1          1.0047    1.8421    0.0024 H         1 <0>         0.1279
     19 H2         -0.5450    1.8259   -0.8730 H         1 <0>         0.1192
     20 H3         -0.5280    1.8163    0.9069 H         1 <0>         0.1301
     21 H4          0.2024   -0.1392    2.0889 H         1 <0>         0.1303
     22 H5          0.7273   -1.5806    1.1861 H         1 <0>         0.1200
     23 H6          1.7352   -0.1134    1.1844 H         1 <0>         0.1332
     24 H7         -1.3618   -1.5992    0.0961 H         1 <0>         0.1430
     25 H8         -1.9129   -0.0898    0.8617 H         1 <0>         0.1493
     26 H9         -1.6995   -1.9766   -2.4036 H         1 <0>         0.2092
     27 H10        -3.5387    3.5840   -0.8705 H         1 <0>         0.1447
     28 H11        -4.6867    5.6946   -1.3961 H         1 <0>         0.1484
     29 H12        -5.6347    4.2291   -5.2914 H         1 <0>         0.1499
     30 H13        -4.4806    2.1164   -4.7882 H         1 <0>         0.1385
     31 H14         0.7096   -1.4812   -1.2232 H         1 <0>         0.3918
     32 H15         0.2511   -0.0987   -2.0260 H         1 <0>         0.3912
@<TRIPOS>BOND
     1    1    2 1
     2    1   18 1
     3    1   19 1
     4    1   20 1
     5    2    3 1
     6    2    4 1
     7    2   17 1
     8    3   21 1
     9    3   22 1
    10    3   23 1
    11    4    5 1
    12    4   24 1
    13    4   25 1
    14    5    9 1
    15    5    6 2
    16    6    7 1
    17    6   26 1
    18    7    8 1
    19    8    9 2
    20    8   10 1
    21   10   15 ar
    22   10   11 ar
    23   11   12 ar
    24   11   27 1
    25   12   13 ar
    26   12   28 1
    27   13   14 ar
    28   13   16 1
    29   14   15 ar
    30   14   29 1
    31   15   30 1
    32   17   31 1
    33   17   32 1
@<TRIPOS>MOLECULE
ZINC61847354
   30    31     0     0     0
SMALL
USER_CHARGES

@<TRIPOS>ATOM
      1 C1         -0.0187    1.5258    0.0104 C.3       1 <0>        -0.1900
      2 C2          0.0021   -0.0041    0.0020 C.3       1 <0>        -0.0095
      3 N1          0.7126   -0.4907    1.1921 N.4       1 <0>        -0.5089
      4 C3          0.7325   -1.9595    1.1840 C.3       1 <0>         0.0776
      5 C4          1.4614   -2.4588    2.4049 C.2       1 <0>        -0.0151
      6 C5          0.7649   -2.8027    3.5202 C.2       1 <0>        -0.2018
      7 S1          2.0990   -3.3015    4.6018 S.3       1 <0>         0.1424
      8 C6          3.4354   -2.9983    3.4534 C.2       1 <0>         0.1586
      9 N2          2.7695   -2.5672    2.3911 N.2       1 <0>        -0.4982
     10 C7          4.8905   -3.1839    3.6369 C.ar      1 <0>        -0.0368
     11 C8          5.7722   -2.8764    2.5994 C.ar      1 <0>        -0.0243
     12 C9          7.1286   -3.0510    2.7759 C.ar      1 <0>        -0.1470
     13 C10         7.6178   -3.5309    3.9809 C.ar      1 <0>         0.1509
     14 C11         6.7481   -3.8380    5.0145 C.ar      1 <0>        -0.1413
     15 C12         5.3884   -3.6622    4.8509 C.ar      1 <0>         0.0094
     16 Cl1         4.2998   -4.0405    6.1491 Cl        1 <0>        -0.0137
     17 F1          8.9477   -3.7003    4.1476 F         1 <0>        -0.1157
     18 H1          1.0039    1.9031    0.0027 H         1 <0>         0.0806
     19 H2         -0.5459    1.8868   -0.8726 H         1 <0>         0.1080
     20 H3         -0.5289    1.8773    0.9072 H         1 <0>         0.0804
     21 H4         -1.0205   -0.3814    0.0098 H         1 <0>         0.1323
     22 H5          0.5123   -0.3556   -0.8948 H         1 <0>         0.1324
     23 H6          1.6592   -0.1414    1.1850 H         1 <0>         0.4305
     24 H7         -0.2901   -2.3368    1.1918 H         1 <0>         0.1450
     25 H8          1.2427   -2.3111    0.2873 H         1 <0>         0.1441
     26 H9         -0.2993   -2.7806    3.7028 H         1 <0>         0.2072
     27 H10         5.3926   -2.5028    1.6599 H         1 <0>         0.1562
     28 H11         7.8113   -2.8136    1.9734 H         1 <0>         0.1581
     29 H12         7.1345   -4.2120    5.9511 H         1 <0>         0.1626
     30 H13         0.2403   -0.1653    2.0223 H         1 <0>         0.4260
@<TRIPOS>BOND
     1    1    2 1
     2    1   18 1
     3    1   19 1
     4    1   20 1
     5    2    3 1
     6    2   21 1
     7    2   22 1
     8    3    4 1
     9    3   23 1
    10    3   30 1
    11    4    5 1
    12    4   24 1
    13    4   25 1
    14    5    9 1
    15    5    6 2
    16    6    7 1
    17    6   26 1
    18    7    8 1
    19    8    9 2
    20    8   10 1
    21   10   15 ar
    22   10   11 ar
    23   11   12 ar
    24   11   27 1
    25   12   13 ar
    26   12   28 1
    27   13   14 ar
    28   13   17 1
    29   14   15 ar
    30   14   29 1
    31   15   16 1
@<TRIPOS>MOLECULE
ZINC05931499
   23    24     0     0     0
SMALL
USER_CHARGES
4-(4-methylthiazol-2-yl)aniline
@<TRIPOS>ATOM
      1 C1         -2.4765    1.3878    0.0197 C.3       1 <0>        -0.0845
      2 C2         -1.0701    1.9291    0.0166 C.2       1 <0>         0.0625
      3 C3         -0.0126    1.0758    0.0080 C.2       1 <0>        -0.2146
      4 S1          1.3482    2.2363    0.0012 S.3       1 <0>        -0.0117
      5 C4          0.3626    3.7280    0.0175 C.2       1 <0>         0.1822
      6 N1         -0.8646    3.2259    0.0263 N.2       1 <0>        -0.5096
      7 C5          0.7983    5.1402    0.0208 C.ar      1 <0>        -0.0861
      8 C6         -0.1501    6.1649    0.0292 C.ar      1 <0>        -0.0150
      9 C7          0.2592    7.4805    0.0381 C.ar      1 <0>        -0.2020
     10 C8          1.6153    7.7883    0.0272 C.ar      1 <0>         0.2398
     11 C9          2.5623    6.7699    0.0131 C.ar      1 <0>        -0.1987
     12 C10         2.1592    5.4524    0.0099 C.ar      1 <0>        -0.0363
     13 N2          2.0266    9.1212    0.0299 N.pl3     1 <0>        -0.8697
     14 H1         -2.8113    1.2522    1.0481 H         1 <0>         0.0742
     15 H2         -3.1374    2.0904   -0.4879 H         1 <0>         0.0744
     16 H3         -2.4980    0.4293   -0.4988 H         1 <0>         0.0737
     17 H4          0.0021   -0.0041    0.0020 H         1 <0>         0.1967
     18 H5         -1.2035    5.9265    0.0332 H         1 <0>         0.1357
     19 H6         -0.4739    8.2735    0.0491 H         1 <0>         0.1293
     20 H7          3.6148    7.0120    0.0050 H         1 <0>         0.1296
     21 H8          2.8950    4.6620   -0.0014 H         1 <0>         0.1269
     22 H9          2.9723    9.3370    0.0220 H         1 <0>         0.4015
     23 H10         1.3669    9.8323    0.0398 H         1 <0>         0.4018
@<TRIPOS>BOND
     1    1    2 1
     2    1   14 1
     3    1   15 1
     4    1   16 1
     5    2    6 1
     6    2    3 2
     7    3    4 1
     8    3   17 1
     9    4    5 1
    10    5    6 2
    11    5    7 1
    12    7   12 ar
    13    7    8 ar
    14    8    9 ar
    15    8   18 1
    16    9   10 ar
    17    9   19 1
    18   10   11 ar
    19   10   13 1
    20   11   12 ar
    21   11   20 1
    22   12   21 1
    23   13   22 1
    24   13   23 1
@<TRIPOS>MOLECULE
ZINC11851496
   34    36     0     0     0
SMALL
USER_CHARGES
[4-[4-(4-chlorophenyl)thiazol-2-yl]phenyl]methanamine
@<TRIPOS>ATOM
      1 C1         -1.2158    1.7509    0.0173 C.ar      1 <0>        -0.0863
      2 C2         -0.0126    1.0758    0.0080 C.ar      1 <0>        -0.0947
      3 C3          1.1854    1.7914    0.0004 C.ar      1 <0>         0.0364
      4 C4          1.1578    3.1866    0.0082 C.ar      1 <0>        -0.0738
      5 C5         -0.0520    3.8496    0.0233 C.ar      1 <0>        -0.0875
      6 C6         -1.2362    3.1342    0.0308 C.ar      1 <0>        -0.1626
      7 C7         -2.5541    3.8649    0.0468 C.3       1 <0>         0.0512
      8 C8          2.4786    1.0744   -0.0154 C.2       1 <0>         0.1156
      9 N1          3.7078    1.5646   -0.0299 N.2       1 <0>        -0.4716
     10 C9          4.7624    0.7714   -0.0388 C.2       1 <0>         0.0978
     11 C10         4.5821   -0.5876   -0.0444 C.2       1 <0>        -0.1705
     12 S1          2.7966   -0.6846   -0.0279 S.3       1 <0>         0.0550
     13 C11         6.1305    1.3450   -0.0493 C.ar      1 <0>        -0.0310
     14 C12         7.2414    0.5036   -0.0591 C.ar      1 <0>        -0.0901
     15 C13         8.5118    1.0421   -0.0742 C.ar      1 <0>        -0.1074
     16 C14         8.6840    2.4157   -0.0684 C.ar      1 <0>        -0.0251
     17 C15         7.5837    3.2559   -0.0534 C.ar      1 <0>        -0.1117
     18 C16         6.3091    2.7272   -0.0435 C.ar      1 <0>        -0.0733
     19 Cl1        10.2849    3.0870   -0.0796 Cl        1 <0>        -0.0588
     20 H1         -2.1437    1.1982    0.0187 H         1 <0>         0.1411
     21 H2          0.0021   -0.0041    0.0020 H         1 <0>         0.1401
     22 H3          2.0815    3.7462    0.0020 H         1 <0>         0.1482
     23 H4         -0.0747    4.9293    0.0290 H         1 <0>         0.1409
     24 H5         -3.2986    3.2602    0.5646 H         1 <0>         0.1402
     25 H6         -2.4354    4.8168    0.5644 H         1 <0>         0.1432
     26 H7         -3.8776    4.5986   -1.3490 H         1 <0>         0.4406
     27 H8         -2.2928    4.6133   -1.8532 H         1 <0>         0.4372
     28 H9          5.3155   -1.3803   -0.0560 H         1 <0>         0.2092
     29 H10         7.1082   -0.5682   -0.0587 H         1 <0>         0.1353
     30 H11         9.3733    0.3909   -0.0860 H         1 <0>         0.1414
     31 H12         7.7232    4.3268   -0.0489 H         1 <0>         0.1388
     32 H13         5.4514    3.3834   -0.0311 H         1 <0>         0.1396
     33 N2         -2.9976    4.0855   -1.3409 N.4       1 <0>        -0.6463
     34 H14        -3.1352    3.1773   -1.7997 H         1 <0>         0.4390
@<TRIPOS>BOND
     1    1    6 ar
     2    1    2 ar
     3    1   20 1
     4    2    3 ar
     5    2   21 1
     6    3    4 ar
     7    3    8 1
     8    4    5 ar
     9    4   22 1
    10    5    6 ar
    11    5   23 1
    12    6    7 1
    13    7   24 1
    14    7   25 1
    15    7   33 1
    16    8   12 1
    17    8    9 2
    18    9   10 1
    19   10   11 2
    20   10   13 1
    21   11   12 1
    22   11   28 1
    23   13   18 ar
    24   13   14 ar
    25   14   15 ar
    26   14   29 1
    27   15   16 ar
    28   15   30 1
    29   16   17 ar
    30   16   19 1
    31   17   18 ar
    32   17   31 1
    33   18   32 1
    34   26   33 1
    35   27   33 1
    36   33   34 1
@<TRIPOS>MOLECULE
ZINC40999644
   36    37     0     0     0
SMALL
USER_CHARGES

@<TRIPOS>ATOM
      1 C1         -0.0187    1.5258    0.0104 C.3       1 <0>        -0.1565
      2 C2          0.0021   -0.0041    0.0020 C.3       1 <0>        -0.1516
      3 C3         -1.4333   -0.5336    0.0129 C.3       1 <0>        -0.0102
      4 N1         -1.4134   -2.0025    0.0048 N.4       1 <0>        -0.5086
      5 C4         -2.7915   -2.5110    0.0152 C.3       1 <0>         0.0783
      6 C5         -2.7711   -4.0178    0.0069 C.2       1 <0>        -0.0099
      7 C6         -2.8583   -4.7064    1.1760 C.2       1 <0>        -0.1804
      8 S1         -2.7866   -6.3890    0.5739 S.3       1 <0>         0.1003
      9 C7         -2.6487   -5.9924   -1.1642 C.2       1 <0>         0.1810
     10 N2         -2.6745   -4.6675   -1.1290 N.2       1 <0>        -0.5041
     11 C8         -2.5403   -6.8985   -2.3278 C.ar      1 <0>        -0.0196
     12 C9         -2.4349   -6.3738   -3.6168 C.ar      1 <0>        -0.0686
     13 C10        -2.3340   -7.2233   -4.6991 C.ar      1 <0>        -0.0936
     14 C11        -2.3371   -8.5937   -4.5099 C.ar      1 <0>        -0.0801
     15 C12        -2.4415   -9.1221   -3.2334 C.ar      1 <0>         0.1046
     16 C13        -2.5373   -8.2809   -2.1409 C.ar      1 <0>        -0.1180
     17 F1         -2.4443  -10.4614   -3.0559 F         1 <0>        -0.1246
     18 C14        -2.2271   -9.5154   -5.6971 C.3       1 <0>        -0.1273
     19 H1          1.0039    1.9031    0.0027 H         1 <0>         0.0777
     20 H2         -0.5459    1.8868   -0.8726 H         1 <0>         0.0677
     21 H3         -0.5289    1.8773    0.9072 H         1 <0>         0.0675
     22 H4          0.5123   -0.3556   -0.8948 H         1 <0>         0.0864
     23 H5          0.5293   -0.3651    0.8851 H         1 <0>         0.0861
     24 H6         -1.9435   -0.1821    0.9097 H         1 <0>         0.1332
     25 H7         -1.9605   -0.1726   -0.8702 H         1 <0>         0.1333
     26 H8         -0.9411   -2.3279   -0.8254 H         1 <0>         0.4312
     27 H9         -3.3017   -2.1594    0.9120 H         1 <0>         0.1461
     28 H10        -3.3187   -2.1499   -0.8678 H         1 <0>         0.1455
     29 H11        -2.9462   -4.3392    2.1878 H         1 <0>         0.2113
     30 H12        -2.4326   -5.3043   -3.7668 H         1 <0>         0.1423
     31 H13        -2.2528   -6.8174   -5.6966 H         1 <0>         0.1474
     32 H14        -2.6141   -8.6928   -1.1455 H         1 <0>         0.1415
     33 H15        -1.1767   -9.7279   -5.8960 H         1 <0>         0.0855
     34 H16        -2.7522  -10.4465   -5.4840 H         1 <0>         0.0784
     35 H17        -2.6729   -9.0384   -6.5700 H         1 <0>         0.0816
     36 H18        -0.9254   -2.3367    0.8222 H         1 <0>         0.4262
@<TRIPOS>BOND
     1    1    2 1
     2    1   19 1
     3    1   20 1
     4    1   21 1
     5    2    3 1
     6    2   22 1
     7    2   23 1
     8    3    4 1
     9    3   24 1
    10    3   25 1
    11    4    5 1
    12    4   26 1
    13    4   36 1
    14    5    6 1
    15    5   27 1
    16    5   28 1
    17    6   10 1
    18    6    7 2
    19    7    8 1
    20    7   29 1
    21    8    9 1
    22    9   10 2
    23    9   11 1
    24   11   16 ar
    25   11   12 ar
    26   12   13 ar
    27   12   30 1
    28   13   14 ar
    29   13   31 1
    30   14   15 ar
    31   14   18 1
    32   15   16 ar
    33   15   17 1
    34   16   32 1
    35   18   33 1
    36   18   34 1
    37   18   35 1
@<TRIPOS>MOLECULE
ZINC43388151
   33    34     0     0     0
SMALL
USER_CHARGES

@<TRIPOS>ATOM
      1 C1         -0.0187    1.5258    0.0104 C.3       1 <0>        -0.1567
      2 C2          0.0021   -0.0041    0.0020 C.3       1 <0>        -0.1516
      3 C3         -1.4333   -0.5336    0.0129 C.3       1 <0>        -0.0103
      4 N1         -1.4134   -2.0025    0.0048 N.4       1 <0>        -0.5088
      5 C4         -2.7915   -2.5110    0.0152 C.3       1 <0>         0.0778
      6 C5         -2.7711   -4.0178    0.0069 C.2       1 <0>        -0.0119
      7 C6         -2.8584   -4.7064    1.1760 C.2       1 <0>        -0.1743
      8 S1         -2.7874   -6.3890    0.5738 S.3       1 <0>         0.1187
      9 C7         -2.6497   -5.9924   -1.1642 C.2       1 <0>         0.1672
     10 N2         -2.6745   -4.6675   -1.1290 N.2       1 <0>        -0.4959
     11 C8         -2.5425   -6.8985   -2.3280 C.ar      1 <0>         0.0237
     12 C9         -2.4369   -6.3737   -3.6164 C.ar      1 <0>        -0.1150
     13 C10        -2.3365   -7.2251   -4.7005 C.ar      1 <0>         0.1396
     14 C11        -2.3410   -8.5972   -4.5096 C.ar      1 <0>        -0.1625
     15 C12        -2.4460   -9.1235   -3.2325 C.ar      1 <0>         0.1455
     16 C13        -2.5407   -8.2811   -2.1409 C.ar      1 <0>        -0.1367
     17 F1         -2.4503  -10.4625   -3.0533 F         1 <0>        -0.1159
     18 F2         -2.2342   -6.7183   -5.9487 F         1 <0>        -0.1178
     19 H1          1.0039    1.9031    0.0027 H         1 <0>         0.0778
     20 H2         -0.5459    1.8868   -0.8726 H         1 <0>         0.0677
     21 H3         -0.5289    1.8773    0.9072 H         1 <0>         0.0675
     22 H4          0.5123   -0.3556   -0.8948 H         1 <0>         0.0865
     23 H5          0.5293   -0.3651    0.8851 H         1 <0>         0.0862
     24 H6         -1.9435   -0.1821    0.9097 H         1 <0>         0.1334
     25 H7         -1.9605   -0.1726   -0.8702 H         1 <0>         0.1335
     26 H8         -0.9411   -2.3279   -0.8254 H         1 <0>         0.4314
     27 H9         -3.3017   -2.1594    0.9120 H         1 <0>         0.1471
     28 H10        -3.3187   -2.1499   -0.8678 H         1 <0>         0.1462
     29 H11        -2.9459   -4.3392    2.1879 H         1 <0>         0.2135
     30 H12        -2.4340   -5.3042   -3.7664 H         1 <0>         0.1553
     31 H13        -2.2627   -9.2589   -5.3596 H         1 <0>         0.1627
     32 H14        -2.6177   -8.6924   -1.1453 H         1 <0>         0.1494
     33 H15        -0.9254   -2.3367    0.8222 H         1 <0>         0.4264
@<TRIPOS>BOND
     1    1    2 1
     2    1   19 1
     3    1   20 1
     4    1   21 1
     5    2    3 1
     6    2   22 1
     7    2   23 1
     8    3    4 1
     9    3   24 1
    10    3   25 1
    11    4    5 1
    12    4   26 1
    13    4   33 1
    14    5    6 1
    15    5   27 1
    16    5   28 1
    17    6   10 1
    18    6    7 2
    19    7    8 1
    20    7   29 1
    21    8    9 1
    22    9   10 2
    23    9   11 1
    24   11   16 ar
    25   11   12 ar
    26   12   13 ar
    27   12   30 1
    28   13   14 ar
    29   13   18 1
    30   14   15 ar
    31   14   31 1
    32   15   16 ar
    33   15   17 1
    34   16   32 1
@<TRIPOS>MOLECULE
ZINC82516543
   27    28     0     0     0
SMALL
USER_CHARGES

@<TRIPOS>ATOM
      1 C1         -0.0178    1.4648    0.0101 C.3       1 <0>        -0.0468
      2 N1          0.0021   -0.0041    0.0020 N.4       1 <0>        -0.5087
      3 C2         -1.3761   -0.5125    0.0124 C.3       1 <0>         0.0771
      4 C3         -1.3556   -2.0194    0.0042 C.2       1 <0>        -0.0142
      5 C4         -1.4429   -2.7078    1.1729 C.2       1 <0>        -0.1870
      6 S1         -1.3720   -4.3904    0.5710 S.3       1 <0>         0.1414
      7 C5         -1.2342   -3.9943   -1.1671 C.2       1 <0>         0.1600
      8 N2         -1.2590   -2.6692   -1.1322 N.2       1 <0>        -0.4981
      9 C6         -1.1270   -4.9004   -2.3302 C.ar      1 <0>        -0.0395
     10 C7         -1.0215   -4.3764   -3.6193 C.ar      1 <0>        -0.0783
     11 C8         -0.9217   -5.2286   -4.7020 C.ar      1 <0>         0.0981
     12 C9         -0.9262   -6.6012   -4.5101 C.ar      1 <0>        -0.0925
     13 C10        -1.0305   -7.1268   -3.2356 C.ar      1 <0>        -0.1147
     14 C11        -1.1252   -6.2851   -2.1432 C.ar      1 <0>         0.1189
     15 F1         -1.2210   -6.8002   -0.8979 F         1 <0>        -0.1191
     16 F2         -0.8199   -4.7229   -5.9506 F         1 <0>        -0.1221
     17 H1          1.0047    1.8421    0.0024 H         1 <0>         0.1279
     18 H2         -0.5450    1.8259   -0.8730 H         1 <0>         0.1254
     19 H3         -0.5280    1.8163    0.9069 H         1 <0>         0.1253
     20 H4          0.4744   -0.3295   -0.8281 H         1 <0>         0.4331
     21 H5         -1.8863   -0.1610    0.9092 H         1 <0>         0.1466
     22 H6         -1.9033   -0.1515   -0.8706 H         1 <0>         0.1455
     23 H7         -1.5307   -2.3404    2.1848 H         1 <0>         0.2120
     24 H8         -1.0182   -3.3070   -3.7701 H         1 <0>         0.1575
     25 H9         -0.8483   -7.2631   -5.3599 H         1 <0>         0.1606
     26 H10        -1.0334   -8.1974   -3.0928 H         1 <0>         0.1631
     27 H11         0.4901   -0.3383    0.8195 H         1 <0>         0.4286
@<TRIPOS>BOND
     1    1    2 1
     2    1   17 1
     3    1   18 1
     4    1   19 1
     5    2    3 1
     6    2   20 1
     7    2   27 1
     8    3    4 1
     9    3   21 1
    10    3   22 1
    11    4    8 1
    12    4    5 2
    13    5    6 1
    14    5   23 1
    15    6    7 1
    16    7    8 2
    17    7    9 1
    18    9   14 ar
    19    9   10 ar
    20   10   11 ar
    21   10   24 1
    22   11   12 ar
    23   11   16 1
    24   12   13 ar
    25   12   25 1
    26   13   14 ar
    27   13   26 1
    28   14   15 1
@<TRIPOS>MOLECULE
ZINC40999563
   32    33     0     0     0
SMALL
USER_CHARGES

@<TRIPOS>ATOM
      1 C1         -0.0173    1.4248    0.0099 C.3       1 <0>         0.0185
      2 O1          0.0021   -0.0041    0.0020 O.3       1 <0>        -0.2921
      3 C2         -1.2011   -0.6379    0.0101 C.ar      1 <0>         0.1321
      4 C3         -2.3710    0.0995    0.0195 C.ar      1 <0>        -0.1660
      5 C4         -3.6045   -0.5535    0.0273 C.ar      1 <0>         0.0053
      6 C5         -3.6525   -1.9485    0.0256 C.ar      1 <0>        -0.0796
      7 C6         -2.4816   -2.6792    0.0163 C.ar      1 <0>        -0.0264
      8 C7         -1.2550   -2.0293    0.0031 C.ar      1 <0>         0.1095
      9 O2         -0.1039   -2.7528   -0.0113 O.3       1 <0>        -0.3139
     10 C8          0.4570   -3.1049    1.2550 C.3       1 <0>         0.0338
     11 Cl1        -2.5429   -4.4141    0.0142 Cl        1 <0>        -0.0234
     12 C9         -4.8575    0.2306    0.0378 C.2       1 <0>         0.1795
     13 N1         -6.1143   -0.1916    0.0516 N.2       1 <0>        -0.5008
     14 C10        -7.1174    0.6553    0.0594 C.2       1 <0>        -0.0136
     15 C11        -6.8750    1.9925    0.0533 C.2       1 <0>        -0.1773
     16 S1         -5.0866    2.0038    0.0432 S.3       1 <0>         0.1034
     17 C12        -8.5354    0.1455    0.0746 C.3       1 <0>         0.0792
     18 N2         -8.9687   -0.1377   -1.3002 N.4       1 <0>        -0.6352
     19 H1          1.0053    1.8021    0.0021 H         1 <0>         0.1136
     20 H2         -0.5445    1.7859   -0.8732 H         1 <0>         0.0610
     21 H3         -0.5275    1.7763    0.9067 H         1 <0>         0.0604
     22 H4         -2.3302    1.1788    0.0211 H         1 <0>         0.1449
     23 H5         -4.6058   -2.4561    0.0320 H         1 <0>         0.1527
     24 H6          0.6877   -2.1985    1.8148 H         1 <0>         0.0531
     25 H7         -0.2595   -3.7055    1.8154 H         1 <0>         0.0514
     26 H8          1.3705   -3.6791    1.1007 H         1 <0>         0.1056
     27 H9         -7.5698    2.8193    0.0576 H         1 <0>         0.2128
     28 H10        -8.5868   -0.7680    0.6671 H         1 <0>         0.1485
     29 H11        -9.1882    0.9002    0.5131 H         1 <0>         0.1492
     30 H12        -8.3644   -0.8364   -1.7061 H         1 <0>         0.4389
     31 H13        -9.9182   -0.4791   -1.2901 H         1 <0>         0.4411
     32 H14        -8.9212    0.7078   -1.8487 H         1 <0>         0.4338
@<TRIPOS>BOND
     1    1    2 1
     2    1   19 1
     3    1   20 1
     4    1   21 1
     5    2    3 1
     6    3    8 ar
     7    3    4 ar
     8    4    5 ar
     9    4   22 1
    10    5    6 ar
    11    5   12 1
    12    6    7 ar
    13    6   23 1
    14    7    8 ar
    15    7   11 1
    16    8    9 1
    17    9   10 1
    18   10   24 1
    19   10   25 1
    20   10   26 1
    21   12   16 1
    22   12   13 2
    23   13   14 1
    24   14   15 2
    25   14   17 1
    26   15   16 1
    27   15   27 1
    28   17   18 1
    29   17   28 1
    30   17   29 1
    31   18   30 1
    32   18   31 1
    33   18   32 1
@<TRIPOS>MOLECULE
ZINC80803527
   33    34     0     0     0
SMALL
USER_CHARGES

@<TRIPOS>ATOM
      1 C1         -0.0187    1.5258    0.0104 C.3       1 <0>        -0.1880
      2 C2          0.0021   -0.0041    0.0020 C.3       1 <0>        -0.0153
      3 N1          0.7126   -0.4907    1.1921 N.4       1 <0>        -0.5008
      4 C3          0.7325   -1.9595    1.1840 C.3       1 <0>         0.1165
      5 H1         -0.2871   -2.3363    1.1022 H         1 <0>         0.1500
      6 C4          1.5554   -2.4519   -0.0082 C.3       1 <0>        -0.1795
      7 C5          1.3520   -2.4606    2.4632 C.2       1 <0>        -0.0034
      8 C6          1.0475   -3.7018    2.9266 C.2       1 <0>        -0.1955
      9 S1          2.0361   -3.7495    4.4162 S.3       1 <0>         0.1522
     10 C7          2.7451   -2.1156    4.2595 C.2       1 <0>         0.1545
     11 N2          2.1905   -1.7014    3.1288 N.2       1 <0>        -0.5218
     12 C8          3.6974   -1.4167    5.1486 C.ar      1 <0>        -0.0092
     13 C9          4.1247   -0.1243    4.8403 C.ar      1 <0>        -0.0560
     14 C10         5.0130    0.5233    5.6738 C.ar      1 <0>        -0.0974
     15 C11         5.4812   -0.1050    6.8143 C.ar      1 <0>        -0.0691
     16 C12         5.0628   -1.3866    7.1270 C.ar      1 <0>        -0.0275
     17 C13         4.1685   -2.0444    6.3033 C.ar      1 <0>        -0.0192
     18 Cl1         3.6379   -3.6490    6.6998 Cl        1 <0>        -0.0065
     19 Cl2         5.6568   -2.1669    8.5595 Cl        1 <0>        -0.0217
     20 H2          1.0039    1.9031    0.0027 H         1 <0>         0.0807
     21 H3         -0.5459    1.8868   -0.8726 H         1 <0>         0.1074
     22 H4         -0.5289    1.8773    0.9072 H         1 <0>         0.0803
     23 H5         -1.0205   -0.3814    0.0098 H         1 <0>         0.1312
     24 H6          0.5123   -0.3556   -0.8948 H         1 <0>         0.1327
     25 H7          1.6592   -0.1414    1.1850 H         1 <0>         0.4319
     26 H8          1.5702   -3.5418   -0.0141 H         1 <0>         0.1063
     27 H9          1.1073   -2.0895   -0.9334 H         1 <0>         0.0888
     28 H10         2.5749   -2.0751    0.0737 H         1 <0>         0.0838
     29 H11         0.3902   -4.4511    2.5108 H         1 <0>         0.2073
     30 H12         3.7609    0.3679    3.9505 H         1 <0>         0.1478
     31 H13         5.3441    1.5232    5.4353 H         1 <0>         0.1539
     32 H14         6.1765    0.4069    7.4631 H         1 <0>         0.1566
     33 H15         0.2403   -0.1653    2.0223 H         1 <0>         0.4290
@<TRIPOS>BOND
     1    1    2 1
     2    1   20 1
     3    1   21 1
     4    1   22 1
     5    2    3 1
     6    2   23 1
     7    2   24 1
     8    3    4 1
     9    3   25 1
    10    3   33 1
    11    4    5 1
    12    4    6 1
    13    4    7 1
    14    6   26 1
    15    6   27 1
    16    6   28 1
    17    7   11 1
    18    7    8 2
    19    8    9 1
    20    8   29 1
    21    9   10 1
    22   10   11 2
    23   10   12 1
    24   12   17 ar
    25   12   13 ar
    26   13   14 ar
    27   13   30 1
    28   14   15 ar
    29   14   31 1
    30   15   16 ar
    31   15   32 1
    32   16   17 ar
    33   16   19 1
    34   17   18 1
@<TRIPOS>MOLECULE
ZINC80803530
   33    34     0     0     0
SMALL
USER_CHARGES

@<TRIPOS>ATOM
      1 C1         -0.0187    1.5258    0.0104 C.3       1 <0>        -0.1880
      2 C2          0.0021   -0.0041    0.0020 C.3       1 <0>        -0.0153
      3 N1          0.7126   -0.4907    1.1921 N.4       1 <0>        -0.5008
      4 C3          0.7325   -1.9595    1.1840 C.3       1 <0>         0.1165
      5 H1          1.1628   -2.3119    0.2466 H         1 <0>         0.1499
      6 C4         -0.6962   -2.4897    1.3206 C.3       1 <0>        -0.1795
      7 C5          1.5652   -2.4570    2.3374 C.2       1 <0>        -0.0033
      8 C6          2.1572   -3.6790    2.2725 C.2       1 <0>        -0.1956
      9 S1          2.9801   -3.7317    3.8595 S.3       1 <0>         0.1520
     10 C7          2.4473   -2.1247    4.4344 C.2       1 <0>         0.1547
     11 N2          1.7246   -1.7089    3.4038 N.2       1 <0>        -0.5219
     12 C8          2.7386   -1.4415    5.7129 C.ar      1 <0>        -0.0093
     13 C9          2.2108   -0.1746    5.9666 C.ar      1 <0>        -0.0560
     14 C10         2.4855    0.4579    7.1613 C.ar      1 <0>        -0.0975
     15 C11         3.2826   -0.1601    8.1085 C.ar      1 <0>        -0.0690
     16 C12         3.8103   -1.4162    7.8646 C.ar      1 <0>        -0.0276
     17 C13         3.5380   -2.0633    6.6738 C.ar      1 <0>        -0.0191
     18 Cl1         4.1937   -3.6420    6.3714 Cl        1 <0>        -0.0066
     19 Cl2         4.8102   -2.1829    9.0588 Cl        1 <0>        -0.0216
     20 H2          1.0039    1.9031    0.0027 H         1 <0>         0.0803
     21 H3         -0.5459    1.8868   -0.8726 H         1 <0>         0.1074
     22 H4         -0.5289    1.8773    0.9072 H         1 <0>         0.0807
     23 H5         -1.0205   -0.3814    0.0098 H         1 <0>         0.1327
     24 H6          0.5123   -0.3556   -0.8948 H         1 <0>         0.1312
     25 H7          1.6592   -0.1414    1.1850 H         1 <0>         0.4290
     26 H8         -1.2985   -2.1299    0.4864 H         1 <0>         0.0888
     27 H9         -0.6814   -3.5796    1.3146 H         1 <0>         0.1063
     28 H10        -1.1265   -2.1373    2.2580 H         1 <0>         0.0838
     29 H11         2.1359   -4.4146    1.4819 H         1 <0>         0.2073
     30 H12         1.5887    0.3099    5.2286 H         1 <0>         0.1478
     31 H13         2.0775    1.4384    7.3577 H         1 <0>         0.1539
     32 H14         3.4942    0.3400    9.0421 H         1 <0>         0.1566
     33 H15         0.2403   -0.1653    2.0223 H         1 <0>         0.4319
@<TRIPOS>BOND
     1    1    2 1
     2    1   20 1
     3    1   21 1
     4    1   22 1
     5    2    3 1
     6    2   23 1
     7    2   24 1
     8    3    4 1
     9    3   25 1
    10    3   33 1
    11    4    5 1
    12    4    6 1
    13    4    7 1
    14    6   26 1
    15    6   27 1
    16    6   28 1
    17    7   11 1
    18    7    8 2
    19    8    9 1
    20    8   29 1
    21    9   10 1
    22   10   11 2
    23   10   12 1
    24   12   17 ar
    25   12   13 ar
    26   13   14 ar
    27   13   30 1
    28   14   15 ar
    29   14   31 1
    30   15   16 ar
    31   15   32 1
    32   16   17 ar
    33   16   19 1
    34   17   18 1
@<TRIPOS>MOLECULE
ZINC84427894
   34    36     0     0     0
SMALL
USER_CHARGES

@<TRIPOS>ATOM
      1 C1         -0.0069    1.2519   -0.9268 C.ar      1 <0>        -0.0902
      2 C2          0.1520    0.4448    0.1858 C.ar      1 <0>        -0.1107
      3 C3          1.3524   -0.1966    0.4107 C.ar      1 <0>        -0.1026
      4 C4          2.4082   -0.0299   -0.4872 C.ar      1 <0>        -0.0482
      5 C5          2.2412    0.7857   -1.6076 C.ar      1 <0>        -0.0917
      6 C6          1.0355    1.4214   -1.8207 C.ar      1 <0>        -0.1085
      7 C7          3.6973   -0.7137   -0.2523 C.2       1 <0>        -0.1052
      8 C8          3.9512   -2.0316    0.0395 C.2       1 <0>        -0.0057
      9 N1          5.1863   -2.4283    0.2105 N.2       1 <0>        -0.4912
     10 C9          6.2051   -1.5845    0.1085 C.2       1 <0>         0.1704
     11 S1          5.3605   -0.0564   -0.2768 S.3       1 <0>         0.1136
     12 C10         7.6521   -1.8405    0.2655 C.ar      1 <0>        -0.0256
     13 C11         8.1086   -3.1269    0.5593 C.ar      1 <0>        -0.0608
     14 C12         9.4603   -3.3598    0.7048 C.ar      1 <0>        -0.1040
     15 C13        10.3640   -2.3220    0.5606 C.ar      1 <0>        -0.0767
     16 C14         9.9187   -1.0438    0.2693 C.ar      1 <0>        -0.0339
     17 C15         8.5684   -0.7988    0.1150 C.ar      1 <0>        -0.0805
     18 Cl1        11.0603    0.2518    0.0909 Cl        1 <0>        -0.0445
     19 C16         2.8150   -3.0139    0.1623 C.3       1 <0>         0.0744
     20 N2          2.4553   -3.5158   -1.1706 N.4       1 <0>        -0.6341
     21 H1         -0.9502    1.7482   -1.1006 H         1 <0>         0.1360
     22 H2         -0.6655    0.3170    0.8799 H         1 <0>         0.1373
     23 H3          1.4753   -0.8260    1.2797 H         1 <0>         0.1297
     24 H4          3.0542    0.9191   -2.3059 H         1 <0>         0.1305
     25 H5          0.9049    2.0524   -2.6873 H         1 <0>         0.1374
     26 H6          7.4046   -3.9380    0.6729 H         1 <0>         0.1423
     27 H7          9.8142   -4.3545    0.9321 H         1 <0>         0.1476
     28 H8         11.4213   -2.5097    0.6762 H         1 <0>         0.1470
     29 H9          8.2221    0.1976   -0.1166 H         1 <0>         0.1382
     30 H10         3.1221   -3.8476    0.7938 H         1 <0>         0.1518
     31 H11         1.9529   -2.5183    0.6087 H         1 <0>         0.1458
     32 H12         2.1710   -2.7441   -1.7551 H         1 <0>         0.4332
     33 H13         3.2534   -3.9746   -1.5839 H         1 <0>         0.4379
     34 H14         1.6946   -4.1735   -1.0884 H         1 <0>         0.4410
@<TRIPOS>BOND
     1    1    6 ar
     2    1    2 ar
     3    1   21 1
     4    2    3 ar
     5    2   22 1
     6    3    4 ar
     7    3   23 1
     8    4    5 ar
     9    4    7 1
    10    5    6 ar
    11    5   24 1
    12    6   25 1
    13    7   11 1
    14    7    8 2
    15    8    9 1
    16    8   19 1
    17    9   10 2
    18   10   11 1
    19   10   12 1
    20   12   17 ar
    21   12   13 ar
    22   13   14 ar
    23   13   26 1
    24   14   15 ar
    25   14   27 1
    26   15   16 ar
    27   15   28 1
    28   16   17 ar
    29   16   18 1
    30   17   29 1
    31   19   20 1
    32   19   30 1
    33   19   31 1
    34   20   32 1
    35   20   33 1
    36   20   34 1
@<TRIPOS>MOLECULE
ZINC90249917
   33    34     0     0     0
SMALL
USER_CHARGES

@<TRIPOS>ATOM
      1 C1         -0.0187    1.5258    0.0104 C.3       1 <0>        -0.1564
      2 C2          0.0021   -0.0041    0.0020 C.3       1 <0>        -0.1515
      3 C3          0.7182   -0.4975   -1.2568 C.3       1 <0>        -0.0104
      4 N1          0.7381   -1.9663   -1.2649 N.4       1 <0>        -0.5085
      5 C4          1.4257   -2.4401   -2.4735 C.3       1 <0>         0.0772
      6 C5          1.4462   -3.9469   -2.4818 C.2       1 <0>        -0.0191
      7 C6          0.4881   -4.6371   -3.1555 C.2       1 <0>        -0.2051
      8 S1          1.0003   -6.3189   -2.8267 S.3       1 <0>         0.1551
      9 C7          2.4305   -5.9200   -1.8306 C.2       1 <0>         0.1431
     10 N2          2.3919   -4.5949   -1.8431 N.2       1 <0>        -0.4898
     11 C8          3.3983   -6.8244   -1.1736 C.ar      1 <0>         0.0124
     12 C9          4.4537   -6.2985   -0.4274 C.ar      1 <0>        -0.0564
     13 C10         5.3537   -7.1485    0.1839 C.ar      1 <0>        -0.0216
     14 C11         5.2109   -8.5202    0.0572 C.ar      1 <0>        -0.0760
     15 C12         4.1671   -9.0475   -0.6809 C.ar      1 <0>        -0.0668
     16 C13         3.2568   -8.2083   -1.2925 C.ar      1 <0>        -0.0777
     17 Br1         1.8261   -8.9317   -2.2953 Br        1 <0>         0.0139
     18 Cl1         6.6674   -6.4964    1.1127 Cl        1 <0>        -0.0346
     19 H1          1.0039    1.9031    0.0027 H         1 <0>         0.0676
     20 H2         -0.5459    1.8868   -0.8726 H         1 <0>         0.0674
     21 H3         -0.5289    1.8773    0.9072 H         1 <0>         0.0775
     22 H4          0.5293   -0.3651    0.8851 H         1 <0>         0.0862
     23 H5         -1.0205   -0.3814    0.0098 H         1 <0>         0.0860
     24 H6          0.1910   -0.1364   -2.1398 H         1 <0>         0.1328
     25 H7          1.7408   -0.1202   -1.2645 H         1 <0>         0.1330
     26 H8          1.2261   -2.3006   -0.4474 H         1 <0>         0.4305
     27 H9          0.8985   -2.0790   -3.3565 H         1 <0>         0.1449
     28 H10         2.4483   -2.0628   -2.4812 H         1 <0>         0.1436
     29 H11        -0.3502   -4.2713   -3.7299 H         1 <0>         0.2050
     30 H12         4.5665   -5.2289   -0.3286 H         1 <0>         0.1555
     31 H13         5.9179   -9.1809    0.5367 H         1 <0>         0.1575
     32 H14         4.0615  -10.1181   -0.7761 H         1 <0>         0.1587
     33 H15        -0.2085   -2.3156   -1.2577 H         1 <0>         0.4260
@<TRIPOS>BOND
     1    1    2 1
     2    1   19 1
     3    1   20 1
     4    1   21 1
     5    2    3 1
     6    2   22 1
     7    2   23 1
     8    3    4 1
     9    3   24 1
    10    3   25 1
    11    4    5 1
    12    4   26 1
    13    4   33 1
    14    5    6 1
    15    5   27 1
    16    5   28 1
    17    6   10 1
    18    6    7 2
    19    7    8 1
    20    7   29 1
    21    8    9 1
    22    9   10 2
    23    9   11 1
    24   11   16 ar
    25   11   12 ar
    26   12   13 ar
    27   12   30 1
    28   13   14 ar
    29   13   18 1
    30   14   15 ar
    31   14   31 1
    32   15   16 ar
    33   15   32 1
    34   16   17 1
@<TRIPOS>MOLECULE
ZINC40887303
   30    32     0     0     0
SMALL
USER_CHARGES

@<TRIPOS>ATOM
      1 C1          0.3009    1.3530    0.8309 C.ar      1 <0>        -0.1809
      2 C2          0.9766    2.0660   -0.1439 C.ar      1 <0>        -0.0604
      3 C3          1.8702    1.4270   -0.9821 C.ar      1 <0>        -0.2028
      4 C4          2.0944    0.0644   -0.8495 C.ar      1 <0>         0.2497
      5 C5          1.4121   -0.6586    0.1357 C.ar      1 <0>        -0.1121
      6 C6          0.5139   -0.0034    0.9744 C.ar      1 <0>        -0.0518
      7 C7          1.6442   -2.1159    0.2856 C.2       1 <0>         0.1088
      8 C8          0.5834   -2.9789    0.3833 C.2       1 <0>        -0.1872
      9 S1          1.4404   -4.5406    0.5393 S.3       1 <0>         0.0258
     10 C9          3.1036   -3.8903    0.4593 C.2       1 <0>         0.1493
     11 N1          2.8735   -2.5942    0.3206 N.2       1 <0>        -0.4853
     12 C10         4.3938   -4.6099    0.5245 C.ar      1 <0>        -0.0029
     13 C11         5.5949   -3.9032    0.4483 C.ar      1 <0>        -0.0669
     14 C12         6.7955   -4.5798    0.5097 C.ar      1 <0>        -0.1051
     15 C13         6.8113   -5.9564    0.6465 C.ar      1 <0>        -0.0905
     16 C14         5.6238   -6.6639    0.7227 C.ar      1 <0>        -0.0339
     17 C15         4.4154   -5.9975    0.6682 C.ar      1 <0>        -0.0853
     18 Cl1         5.6537   -8.3912    0.8936 Cl        1 <0>        -0.0571
     19 N2          2.9964   -0.5830   -1.6956 N.pl3     1 <0>        -0.8656
     20 H1         -0.3925    1.8607    1.4850 H         1 <0>         0.1227
     21 H2          0.8043    3.1268   -0.2503 H         1 <0>         0.1232
     22 H3          2.3942    1.9887   -1.7413 H         1 <0>         0.1227
     23 H4         -0.0152   -0.5559    1.7367 H         1 <0>         0.1221
     24 H5         -0.4766   -2.7726    0.3700 H         1 <0>         0.2020
     25 H6          5.5844   -2.8285    0.3412 H         1 <0>         0.1426
     26 H7          7.7254   -4.0336    0.4505 H         1 <0>         0.1427
     27 H8          7.7540   -6.4813    0.6937 H         1 <0>         0.1410
     28 H9          3.4893   -6.5495    0.7322 H         1 <0>         0.1383
     29 H10         3.5383   -0.0671   -2.3129 H         1 <0>         0.3971
     30 H11         3.0813   -1.5489   -1.6662 H         1 <0>         0.3999
@<TRIPOS>BOND
     1    1    6 ar
     2    1    2 ar
     3    1   20 1
     4    2    3 ar
     5    2   21 1
     6    3    4 ar
     7    3   22 1
     8    4    5 ar
     9    4   19 1
    10    5    6 ar
    11    5    7 1
    12    6   23 1
    13    7   11 1
    14    7    8 2
    15    8    9 1
    16    8   24 1
    17    9   10 1
    18   10   11 2
    19   10   12 1
    20   12   17 ar
    21   12   13 ar
    22   13   14 ar
    23   13   25 1
    24   14   15 ar
    25   14   26 1
    26   15   16 ar
    27   15   27 1
    28   16   17 ar
    29   16   18 1
    30   17   28 1
    31   19   29 1
    32   19   30 1
@<TRIPOS>MOLECULE
ZINC40887258
   30    32     0     0     0
SMALL
USER_CHARGES

@<TRIPOS>ATOM
      1 C1         -0.0167    1.3775    0.0096 C.ar      1 <0>        -0.0709
      2 C2          1.1671    2.0883    0.0021 C.ar      1 <0>        -0.1627
      3 C3          2.3862    1.4127   -0.0136 C.ar      1 <0>         0.0181
      4 C4          2.4064    0.0202   -0.0213 C.ar      1 <0>        -0.1637
      5 C5          1.2132   -0.6864   -0.0133 C.ar      1 <0>         0.2129
      6 C6          0.0021   -0.0041    0.0020 C.ar      1 <0>        -0.1915
      7 N1          1.2282   -2.0832   -0.0214 N.pl3     1 <0>        -0.8785
      8 C7          3.6589    2.1750   -0.0227 C.2       1 <0>         0.0996
      9 C8          3.6479    3.5410    0.0927 C.2       1 <0>        -0.1847
     10 S1          5.3997    3.8931    0.0224 S.3       1 <0>         0.0286
     11 C9          5.9590    2.2042   -0.1514 C.2       1 <0>         0.1523
     12 N2          4.8123    1.5439   -0.1363 N.2       1 <0>        -0.4823
     13 C10         7.3375    1.6829   -0.2737 C.ar      1 <0>        -0.0023
     14 C11         7.5585    0.3114   -0.4079 C.ar      1 <0>        -0.0666
     15 C12         8.8466   -0.1692   -0.5216 C.ar      1 <0>        -0.1052
     16 C13         9.9188    0.7049   -0.5029 C.ar      1 <0>        -0.0908
     17 C14         9.7070    2.0665   -0.3697 C.ar      1 <0>        -0.0338
     18 C15         8.4219    2.5606   -0.2613 C.ar      1 <0>        -0.0852
     19 Cl1        11.0587    3.1556   -0.3468 Cl        1 <0>        -0.0573
     20 H1         -0.9600    1.9030    0.0260 H         1 <0>         0.1259
     21 H2          1.1484    3.1681    0.0081 H         1 <0>         0.1210
     22 H3          3.3484   -0.5078   -0.0339 H         1 <0>         0.1296
     23 H4         -0.9266   -0.5553    0.0083 H         1 <0>         0.1211
     24 H5          2.0734   -2.5590   -0.0327 H         1 <0>         0.3987
     25 H6          0.3935   -2.5772   -0.0157 H         1 <0>         0.3987
     26 H7          2.8124    4.2173    0.1969 H         1 <0>         0.2042
     27 H8          6.7227   -0.3724   -0.4223 H         1 <0>         0.1425
     28 H9          9.0184   -1.2305   -0.6251 H         1 <0>         0.1428
     29 H10        10.9253    0.3234   -0.5923 H         1 <0>         0.1410
     30 H11         8.2570    3.6233   -0.1626 H         1 <0>         0.1384
@<TRIPOS>BOND
     1    1    6 ar
     2    1    2 ar
     3    1   20 1
     4    2    3 ar
     5    2   21 1
     6    3    4 ar
     7    3    8 1
     8    4    5 ar
     9    4   22 1
    10    5    6 ar
    11    5    7 1
    12    6   23 1
    13    7   24 1
    14    7   25 1
    15    8   12 1
    16    8    9 2
    17    9   10 1
    18    9   26 1
    19   10   11 1
    20   11   12 2
    21   11   13 1
    22   13   18 ar
    23   13   14 ar
    24   14   15 ar
    25   14   27 1
    26   15   16 ar
    27   15   28 1
    28   16   17 ar
    29   16   29 1
    30   17   18 ar
    31   17   19 1
    32   18   30 1
@<TRIPOS>MOLECULE
ZINC01401174
   25    26     0     0     0
SMALL
USER_CHARGES

@<TRIPOS>ATOM
      1 C1         -0.0178    1.4608    0.0101 C.3       1 <0>         0.0859
      2 N1          0.0021   -0.0041    0.0020 N.am      1 <0>        -0.7182
      3 C2         -1.1558   -0.6938    0.0094 C.2       1 <0>         0.5891
      4 O1         -2.2173   -0.1000    0.0227 O.2       1 <0>        -0.5351
      5 C3         -1.1358   -2.1667    0.0013 C.2       1 <0>        -0.0139
      6 C4         -2.3071   -2.8771    0.0034 C.2       1 <0>        -0.1983
      7 S1         -1.7658   -4.4708   -0.0087 S.3       1 <0>         0.1758
      8 C5         -0.0120   -4.1434   -0.0161 C.2       1 <0>         0.1118
      9 N2          0.0159   -2.8232   -0.0137 N.2       1 <0>        -0.4603
     10 C6          1.1157   -5.1006   -0.0272 C.ar      1 <0>        -0.0171
     11 C7          2.4306   -4.6339   -0.0252 C.ar      1 <0>        -0.0722
     12 C8          3.4781   -5.5319   -0.0351 C.ar      1 <0>        -0.1191
     13 C9          3.2269   -6.8923   -0.0474 C.ar      1 <0>        -0.0995
     14 C10         1.9254   -7.3613   -0.0499 C.ar      1 <0>        -0.1160
     15 C11         0.8691   -6.4738   -0.0338 C.ar      1 <0>        -0.0940
     16 H1          1.0048    1.8381    0.0023 H         1 <0>         0.0787
     17 H2         -0.5450    1.8219   -0.8730 H         1 <0>         0.0623
     18 H3         -0.5280    1.8123    0.9069 H         1 <0>         0.0623
     19 H4          0.8486   -0.4776   -0.0086 H         1 <0>         0.4111
     20 H5         -3.3219   -2.5077    0.0114 H         1 <0>         0.2107
     21 H6          2.6280   -3.5722   -0.0163 H         1 <0>         0.1347
     22 H7          4.4964   -5.1720   -0.0336 H         1 <0>         0.1317
     23 H8          4.0503   -7.5911   -0.0554 H         1 <0>         0.1294
     24 H9          1.7357   -8.4245   -0.0598 H         1 <0>         0.1325
     25 H10        -0.1465   -6.8412   -0.0312 H         1 <0>         0.1277
@<TRIPOS>BOND
     1    1    2 1
     2    1   16 1
     3    1   17 1
     4    1   18 1
     5    2    3 am
     6    2   19 1
     7    3    4 2
     8    3    5 1
     9    5    9 1
    10    5    6 2
    11    6    7 1
    12    6   20 1
    13    7    8 1
    14    8    9 2
    15    8   10 1
    16   10   15 ar
    17   10   11 ar
    18   11   12 ar
    19   11   21 1
    20   12   13 ar
    21   12   22 1
    22   13   14 ar
    23   13   23 1
    24   14   15 ar
    25   14   24 1
    26   15   25 1
@<TRIPOS>MOLECULE
ZINC40429828
   33    34     0     0     0
SMALL
USER_CHARGES

@<TRIPOS>ATOM
      1 C1         -0.0187    1.5258    0.0104 C.3       1 <0>        -0.1902
      2 C2          0.0021   -0.0041    0.0020 C.3       1 <0>        -0.0095
      3 N1          0.6897   -0.4778   -1.2066 N.4       1 <0>        -0.5091
      4 C3          0.7096   -1.9467   -1.2147 C.3       1 <0>         0.0778
      5 C4          1.4150   -2.4327   -2.4546 C.2       1 <0>        -0.0117
      6 C5          2.7377   -2.7435   -2.4078 C.2       1 <0>        -0.1762
      7 S1          3.0197   -3.2412   -4.1024 S.3       1 <0>         0.1105
      8 C6          1.3497   -2.9817   -4.6861 C.2       1 <0>         0.1683
      9 N2          0.7523   -2.5617   -3.5798 N.2       1 <0>        -0.4990
     10 C7          0.7856   -3.1858   -6.0377 C.ar      1 <0>        -0.0063
     11 C8         -0.5607   -2.9131   -6.2836 C.ar      1 <0>        -0.0665
     12 C9         -1.0808   -3.1057   -7.5469 C.ar      1 <0>        -0.0686
     13 C10        -0.2708   -3.5686   -8.5686 C.ar      1 <0>        -0.1511
     14 C11         1.0646   -3.8413   -8.3312 C.ar      1 <0>        -0.0637
     15 C12         1.5987   -3.6465   -7.0741 C.ar      1 <0>        -0.0868
     16 C13        -0.8458   -3.7771   -9.9459 C.3       1 <0>         0.5057
     17 F1         -0.7141   -2.5994  -10.6894 F         1 <0>        -0.1704
     18 F2         -0.1573   -4.8127  -10.5868 F         1 <0>        -0.1710
     19 F3         -2.1998   -4.1129   -9.8400 F         1 <0>        -0.1716
     20 H1          1.0039    1.9031    0.0027 H         1 <0>         0.0806
     21 H2         -0.5459    1.8868   -0.8726 H         1 <0>         0.0808
     22 H3         -0.5289    1.8773    0.9072 H         1 <0>         0.1085
     23 H4          0.5293   -0.3651    0.8851 H         1 <0>         0.1328
     24 H5         -1.0205   -0.3814    0.0098 H         1 <0>         0.1329
     25 H6          0.2017   -0.1436   -2.0240 H         1 <0>         0.4309
     26 H7          1.2368   -2.3077   -0.3316 H         1 <0>         0.1466
     27 H8         -0.3130   -2.3239   -1.2069 H         1 <0>         0.1458
     28 H9          3.4272   -2.7012   -1.5777 H         1 <0>         0.2126
     29 H10        -1.1941   -2.5524   -5.4868 H         1 <0>         0.1475
     30 H11        -2.1225   -2.8950   -7.7386 H         1 <0>         0.1505
     31 H12         1.6916   -4.2027   -9.1329 H         1 <0>         0.1522
     32 H13         2.6425   -3.8548   -6.8913 H         1 <0>         0.1417
     33 H14         1.6363   -0.1286   -1.2138 H         1 <0>         0.4262
@<TRIPOS>BOND
     1    1    2 1
     2    1   20 1
     3    1   21 1
     4    1   22 1
     5    2    3 1
     6    2   23 1
     7    2   24 1
     8    3    4 1
     9    3   25 1
    10    3   33 1
    11    4    5 1
    12    4   26 1
    13    4   27 1
    14    5    9 1
    15    5    6 2
    16    6    7 1
    17    6   28 1
    18    7    8 1
    19    8    9 2
    20    8   10 1
    21   10   15 ar
    22   10   11 ar
    23   11   12 ar
    24   11   29 1
    25   12   13 ar
    26   12   30 1
    27   13   14 ar
    28   13   16 1
    29   14   15 ar
    30   14   31 1
    31   15   32 1
    32   16   17 1
    33   16   18 1
    34   16   19 1
@<TRIPOS>MOLECULE
ZINC40999568
   26    27     0     0     0
SMALL
USER_CHARGES

@<TRIPOS>ATOM
      1 C1         -0.0178    1.4648    0.0101 C.3       1 <0>        -0.0468
      2 N1          0.0021   -0.0041    0.0020 N.4       1 <0>        -0.5086
      3 C2          0.7126   -0.4907    1.1921 C.3       1 <0>         0.0766
      4 C3          0.7330   -1.9975    1.1838 C.2       1 <0>        -0.0100
      5 C4          1.8061   -2.6612    0.6774 C.2       1 <0>        -0.1792
      6 S1          1.2915   -4.3564    0.9229 S.3       1 <0>         0.0981
      7 C5         -0.2922   -3.9969    1.6711 C.2       1 <0>         0.1849
      8 N2         -0.2826   -2.6713    1.6704 N.2       1 <0>        -0.5056
      9 C6         -1.3308   -4.9276    2.1626 C.ar      1 <0>        -0.0961
     10 C7         -1.1418   -6.3121    2.0812 C.ar      1 <0>        -0.0405
     11 C8         -2.1439   -7.1399    2.5556 C.ar      1 <0>        -0.1651
     12 C9         -3.2897   -6.5782    3.0900 C.ar      1 <0>         0.1349
     13 N3         -3.4404   -5.2693    3.1539 N.ar      1 <0>        -0.4794
     14 C10        -2.5131   -4.4405    2.7205 C.ar      1 <0>         0.1599
     15 H1          1.0047    1.8421    0.0024 H         1 <0>         0.1251
     16 H2         -0.5450    1.8259   -0.8730 H         1 <0>         0.1279
     17 H3         -0.5280    1.8163    0.9069 H         1 <0>         0.1256
     18 H4         -0.9445   -0.3533    0.0092 H         1 <0>         0.4335
     19 H5          1.7352   -0.1134    1.1844 H         1 <0>         0.1464
     20 H6          0.2024   -0.1392    2.0889 H         1 <0>         0.1460
     21 H7          2.7167   -2.2725    0.2460 H         1 <0>         0.2117
     22 H8         -0.2371   -6.7237    1.6587 H         1 <0>         0.1415
     23 H9         -2.0330   -8.2131    2.5088 H         1 <0>         0.1528
     24 H10        -4.0737   -7.2219    3.4607 H         1 <0>         0.1711
     25 H11        -2.6712   -3.3746    2.7937 H         1 <0>         0.1669
     26 H12         0.4744   -0.3295   -0.8281 H         1 <0>         0.4284
@<TRIPOS>BOND
     1    1    2 1
     2    1   15 1
     3    1   16 1
     4    1   17 1
     5    2    3 1
     6    2   18 1
     7    2   26 1
     8    3    4 1
     9    3   19 1
    10    3   20 1
    11    4    8 1
    12    4    5 2
    13    5    6 1
    14    5   21 1
    15    6    7 1
    16    7    8 2
    17    7    9 1
    18    9   14 ar
    19    9   10 ar
    20   10   11 ar
    21   10   22 1
    22   11   12 ar
    23   11   23 1
    24   12   13 ar
    25   12   24 1
    26   13   14 ar
    27   14   25 1
@<TRIPOS>MOLECULE
ZINC41627782
   34    35     0     0     0
SMALL
USER_CHARGES

@<TRIPOS>ATOM
      1 C1         -0.0187    1.5258    0.0104 C.3       1 <0>        -0.1523
      2 C2          0.0021   -0.0041    0.0020 C.3       1 <0>        -0.1249
      3 C3          0.7182   -0.4975   -1.2568 C.3       1 <0>         0.0534
      4 O1          0.7376   -1.9263   -1.2646 O.3       1 <0>        -0.3058
      5 C4          1.3411   -2.5292   -2.3220 C.ar      1 <0>         0.1740
      6 C5          1.9079   -1.7577   -3.3281 C.ar      1 <0>        -0.2090
      7 C6          2.5211   -2.3656   -4.4025 C.ar      1 <0>        -0.0369
      8 C7          2.5719   -3.7586   -4.4785 C.ar      1 <0>        -0.0892
      9 C8          2.0010   -4.5306   -3.4651 C.ar      1 <0>        -0.0191
     10 C9          1.3946   -3.9152   -2.3911 C.ar      1 <0>        -0.1562
     11 C10         3.2282   -4.4145   -5.6292 C.2       1 <0>         0.1999
     12 N1          3.3766   -5.7061   -5.8893 N.2       1 <0>        -0.5171
     13 C11         3.9938   -6.1162   -6.9730 C.2       1 <0>        -0.0098
     14 C12         4.4941   -5.2087   -7.8521 C.2       1 <0>        -0.1885
     15 S1          4.0286   -3.6798   -7.0492 S.3       1 <0>         0.0826
     16 C13         4.1476   -7.5911   -7.2414 C.3       1 <0>         0.0794
     17 N2          5.3379   -8.0944   -6.5429 N.4       1 <0>        -0.6348
     18 H1          1.0039    1.9031    0.0027 H         1 <0>         0.0589
     19 H2         -0.5459    1.8868   -0.8726 H         1 <0>         0.0591
     20 H3         -0.5289    1.8773    0.9072 H         1 <0>         0.0691
     21 H4          0.5293   -0.3651    0.8851 H         1 <0>         0.0763
     22 H5         -1.0205   -0.3814    0.0098 H         1 <0>         0.0765
     23 H6          0.1910   -0.1364   -2.1398 H         1 <0>         0.0687
     24 H7          1.7408   -0.1202   -1.2645 H         1 <0>         0.0684
     25 H8          1.8678   -0.6801   -3.2688 H         1 <0>         0.1427
     26 H9          2.9613   -1.7650   -5.1848 H         1 <0>         0.1317
     27 H10         2.0381   -5.6085   -3.5205 H         1 <0>         0.1421
     28 H11         0.9566   -4.5116   -1.6045 H         1 <0>         0.1453
     29 H12         5.0232   -5.3668   -8.7802 H         1 <0>         0.2091
     30 H13         3.2648   -8.1198   -6.8821 H         1 <0>         0.1469
     31 H14         4.2586   -7.7557   -8.3132 H         1 <0>         0.1476
     32 H15         6.1551   -7.6050   -6.8756 H         1 <0>         0.4336
     33 H16         5.2352   -7.9421   -5.5508 H         1 <0>         0.4384
     34 H17         5.4409   -9.0819   -6.7227 H         1 <0>         0.4400
@<TRIPOS>BOND
     1    1    2 1
     2    1   18 1
     3    1   19 1
     4    1   20 1
     5    2    3 1
     6    2   21 1
     7    2   22 1
     8    3    4 1
     9    3   23 1
    10    3   24 1
    11    4    5 1
    12    5   10 ar
    13    5    6 ar
    14    6    7 ar
    15    6   25 1
    16    7    8 ar
    17    7   26 1
    18    8    9 ar
    19    8   11 1
    20    9   10 ar
    21    9   27 1
    22   10   28 1
    23   11   15 1
    24   11   12 2
    25   12   13 1
    26   13   14 2
    27   13   16 1
    28   14   15 1
    29   14   29 1
    30   16   17 1
    31   16   30 1
    32   16   31 1
    33   17   32 1
    34   17   33 1
    35   17   34 1
@<TRIPOS>MOLECULE
ZINC94523927
   34    36     0     0     0
SMALL
USER_CHARGES

@<TRIPOS>ATOM
      1 C1         -0.0178    1.4648    0.0101 C.3       1 <0>        -0.0468
      2 N1          0.0021   -0.0041    0.0020 N.4       1 <0>        -0.5085
      3 C2          0.6897   -0.4778   -1.2066 C.3       1 <0>         0.0769
      4 C3          0.7101   -1.9847   -1.2149 C.2       1 <0>        -0.0099
      5 C4         -0.2481   -2.6750   -1.8886 C.2       1 <0>        -0.1849
      6 S1          0.2638   -4.3567   -1.5592 S.3       1 <0>         0.0925
      7 C5          1.6939   -3.9576   -0.5629 C.2       1 <0>         0.1884
      8 N2          1.6558   -2.6326   -0.5763 N.2       1 <0>        -0.5100
      9 C6          2.6617   -4.8620    0.0944 C.ar      1 <0>        -0.0385
     10 C7          3.7172   -4.3360    0.8407 C.ar      1 <0>        -0.0690
     11 C8          4.6167   -5.1851    1.4513 C.ar      1 <0>        -0.1138
     12 C9          4.4741   -6.5557    1.3251 C.ar      1 <0>        -0.0874
     13 C10         3.4304   -7.0834    0.5864 C.ar      1 <0>        -0.0416
     14 C11         2.5202   -6.2451   -0.0242 C.ar      1 <0>        -0.0794
     15 C12         3.2834   -8.5774    0.4536 C.3       1 <0>        -0.1315
     16 C13         4.1909   -9.4561    1.3167 C.3       1 <0>        -0.1719
     17 C14         4.4394   -9.3466   -0.1890 C.3       1 <0>        -0.1646
     18 H1          1.0047    1.8421    0.0024 H         1 <0>         0.1252
     19 H2         -0.5450    1.8259   -0.8730 H         1 <0>         0.1250
     20 H3         -0.5280    1.8163    0.9069 H         1 <0>         0.1276
     21 H4          0.4901   -0.3383    0.8195 H         1 <0>         0.4332
     22 H5          0.1625   -0.1167   -2.0897 H         1 <0>         0.1456
     23 H6          1.7123   -0.1005   -1.2143 H         1 <0>         0.1448
     24 H7         -1.0862   -2.3092   -2.4632 H         1 <0>         0.2100
     25 H8          3.8298   -3.2664    0.9396 H         1 <0>         0.1345
     26 H9          5.4341   -4.7793    2.0288 H         1 <0>         0.1374
     27 H10         5.1810   -7.2162    1.8051 H         1 <0>         0.1358
     28 H11         1.7030   -6.6584   -0.5966 H         1 <0>         0.1287
     29 H12         2.2719   -8.9349    0.2603 H         1 <0>         0.1175
     30 H13         4.8943   -8.9537    1.9807 H         1 <0>         0.1006
     31 H14         3.7766  -10.3919    1.6917 H         1 <0>         0.1038
     32 H15         4.1885  -10.2104   -0.8046 H         1 <0>         0.1032
     33 H16         5.3062   -8.7721   -0.5156 H         1 <0>         0.0984
     34 H17        -0.9445   -0.3533    0.0092 H         1 <0>         0.4284
@<TRIPOS>BOND
     1    1    2 1
     2    1   18 1
     3    1   19 1
     4    1   20 1
     5    2    3 1
     6    2   21 1
     7    2   34 1
     8    3    4 1
     9    3   22 1
    10    3   23 1
    11    4    8 1
    12    4    5 2
    13    5    6 1
    14    5   24 1
    15    6    7 1
    16    7    8 2
    17    7    9 1
    18    9   14 ar
    19    9   10 ar
    20   10   11 ar
    21   10   25 1
    22   11   12 ar
    23   11   26 1
    24   12   13 ar
    25   12   27 1
    26   13   14 ar
    27   13   15 1
    28   14   28 1
    29   15   17 1
    30   15   16 1
    31   15   29 1
    32   16   17 1
    33   16   30 1
    34   16   31 1
    35   17   32 1
    36   17   33 1
@<TRIPOS>MOLECULE
ZINC35165135
   29    30     0     0     0
SMALL
USER_CHARGES

@<TRIPOS>ATOM
      1 C1         -0.0169    1.3914    0.0097 C.ar      1 <0>        -0.0617
      2 C2          1.1695    2.0947    0.0021 C.ar      1 <0>        -0.1516
      3 C3          2.3789    1.4182   -0.0135 C.ar      1 <0>         0.1212
      4 C4          2.4033    0.0326   -0.0212 C.ar      1 <0>        -0.1537
      5 C5          1.2228   -0.6804   -0.0137 C.ar      1 <0>        -0.0381
      6 C6          0.0021   -0.0041    0.0020 C.ar      1 <0>        -0.0303
      7 C7         -1.2666   -0.7632    0.0105 C.2       1 <0>         0.1583
      8 N1         -1.4625   -2.0744    0.0109 N.2       1 <0>        -0.4774
      9 C8         -2.6728   -2.5824    0.0199 C.2       1 <0>         0.0618
     10 C9         -3.7535   -1.7580    0.0291 C.2       1 <0>        -0.1956
     11 S1         -2.9497   -0.1603    0.0311 S.3       1 <0>         0.0237
     12 C10        -2.8638   -4.0772    0.0196 C.3       1 <0>         0.1330
     13 N2         -2.8166   -4.5766   -1.3611 N.3       1 <0>        -0.6769
     14 C11        -2.9997   -6.0336   -1.4005 C.3       1 <0>         0.0156
     15 C12        -2.9445   -6.5155   -2.8516 C.3       1 <0>         0.4559
     16 F1         -1.7027   -6.1864   -3.4054 F         1 <0>        -0.1714
     17 F2         -3.1189   -7.9031   -2.8891 F         1 <0>        -0.1814
     18 F3         -3.9616   -5.8976   -3.5871 F         1 <0>        -0.1856
     19 F4          3.5381    2.1119   -0.0217 F         1 <0>        -0.1322
     20 H1         -0.9588    1.9196    0.0260 H         1 <0>         0.1376
     21 H2          1.1559    3.1746    0.0081 H         1 <0>         0.1459
     22 H3          3.3485   -0.4898   -0.0334 H         1 <0>         0.1459
     23 H4          1.2429   -1.7602   -0.0204 H         1 <0>         0.1479
     24 H5         -4.8058   -2.0005    0.0368 H         1 <0>         0.2001
     25 H6         -2.0705   -4.5450    0.6025 H         1 <0>         0.0975
     26 H7         -3.8305   -4.3200    0.4609 H         1 <0>         0.0574
     27 H8         -3.5008   -4.1104   -1.9378 H         1 <0>         0.3523
     28 H9         -2.2073   -6.5150   -0.8274 H         1 <0>         0.1218
     29 H10        -3.9673   -6.2900   -0.9690 H         1 <0>         0.0801
@<TRIPOS>BOND
     1    1    6 ar
     2    1    2 ar
     3    1   20 1
     4    2    3 ar
     5    2   21 1
     6    3    4 ar
     7    3   19 1
     8    4    5 ar
     9    4   22 1
    10    5    6 ar
    11    5   23 1
    12    6    7 1
    13    7   11 1
    14    7    8 2
    15    8    9 1
    16    9   10 2
    17    9   12 1
    18   10   11 1
    19   10   24 1
    20   12   13 1
    21   12   25 1
    22   12   26 1
    23   13   14 1
    24   13   27 1
    25   14   15 1
    26   14   28 1
    27   14   29 1
    28   15   16 1
    29   15   17 1
    30   15   18 1
@<TRIPOS>MOLECULE
ZINC40999648
   36    37     0     0     0
SMALL
USER_CHARGES

@<TRIPOS>ATOM
      1 C1         -0.0187    1.5258    0.0104 C.3       1 <0>        -0.1565
      2 C2          0.0021   -0.0041    0.0020 C.3       1 <0>        -0.1515
      3 C3         -1.4333   -0.5336    0.0129 C.3       1 <0>        -0.0102
      4 N1         -1.4134   -2.0025    0.0048 N.4       1 <0>        -0.5085
      5 C4         -2.7915   -2.5110    0.0152 C.3       1 <0>         0.0780
      6 C5         -2.7711   -4.0178    0.0069 C.2       1 <0>        -0.0089
      7 C6         -2.8584   -4.7062    1.1757 C.2       1 <0>        -0.1819
      8 S1         -2.7874   -6.3888    0.5738 S.3       1 <0>         0.0962
      9 C7         -2.6497   -5.9927   -1.1643 C.2       1 <0>         0.1850
     10 N2         -2.6745   -4.6677   -1.1294 N.2       1 <0>        -0.5077
     11 C8         -2.5425   -6.8988   -2.3276 C.ar      1 <0>        -0.0494
     12 C9         -2.4369   -6.3740   -3.6168 C.ar      1 <0>        -0.0402
     13 C10        -2.3373   -7.2236   -4.6983 C.ar      1 <0>        -0.1502
     14 C11        -2.3418   -8.5964   -4.5071 C.ar      1 <0>         0.1349
     15 C12        -2.4468   -9.1226   -3.2295 C.ar      1 <0>        -0.1118
     16 C13        -2.5408   -8.2816   -2.1402 C.ar      1 <0>        -0.0577
     17 C14        -2.4521  -10.6162   -3.0293 C.3       1 <0>        -0.1224
     18 F1         -2.2439   -9.4244   -5.5701 F         1 <0>        -0.1226
     19 H1          1.0039    1.9031    0.0027 H         1 <0>         0.0777
     20 H2         -0.5459    1.8868   -0.8726 H         1 <0>         0.0676
     21 H3         -0.5289    1.8773    0.9072 H         1 <0>         0.0675
     22 H4          0.5123   -0.3556   -0.8948 H         1 <0>         0.0863
     23 H5          0.5293   -0.3651    0.8851 H         1 <0>         0.0861
     24 H6         -1.9435   -0.1821    0.9097 H         1 <0>         0.1331
     25 H7         -1.9605   -0.1726   -0.8702 H         1 <0>         0.1332
     26 H8         -0.9411   -2.3279   -0.8254 H         1 <0>         0.4311
     27 H9         -3.3017   -2.1594    0.9120 H         1 <0>         0.1459
     28 H10        -3.3187   -2.1499   -0.8678 H         1 <0>         0.1452
     29 H11        -2.9459   -4.3389    2.1876 H         1 <0>         0.2107
     30 H12        -2.4337   -5.3045   -3.7669 H         1 <0>         0.1450
     31 H13        -2.2559   -6.8186   -5.6962 H         1 <0>         0.1504
     32 H14        -2.6177   -8.6927   -1.1445 H         1 <0>         0.1388
     33 H15        -1.4294  -10.9682   -2.8935 H         1 <0>         0.0829
     34 H16        -3.0413  -10.8623   -2.1460 H         1 <0>         0.0787
     35 H17        -2.8892  -11.0985   -3.9036 H         1 <0>         0.0788
     36 H18        -0.9254   -2.3367    0.8222 H         1 <0>         0.4262
@<TRIPOS>BOND
     1    1    2 1
     2    1   19 1
     3    1   20 1
     4    1   21 1
     5    2    3 1
     6    2   22 1
     7    2   23 1
     8    3    4 1
     9    3   24 1
    10    3   25 1
    11    4    5 1
    12    4   26 1
    13    4   36 1
    14    5    6 1
    15    5   27 1
    16    5   28 1
    17    6   10 1
    18    6    7 2
    19    7    8 1
    20    7   29 1
    21    8    9 1
    22    9   10 2
    23    9   11 1
    24   11   16 ar
    25   11   12 ar
    26   12   13 ar
    27   12   30 1
    28   13   14 ar
    29   13   31 1
    30   14   15 ar
    31   14   18 1
    32   15   16 ar
    33   15   17 1
    34   16   32 1
    35   17   33 1
    36   17   34 1
    37   17   35 1
@<TRIPOS>MOLECULE
ZINC70840116
   27    28     0     0     0
SMALL
USER_CHARGES

@<TRIPOS>ATOM
      1 C1         -0.0187    1.5258    0.0104 C.3       1 <0>        -0.1746
      2 C2          0.0021   -0.0041    0.0020 C.3       1 <0>         0.1099
      3 H1          0.5123   -0.3556   -0.8948 H         1 <0>         0.1575
      4 C3          0.7309   -0.5033    1.2229 C.2       1 <0>         0.0383
      5 C4          0.1265   -1.3833    2.0642 C.2       1 <0>        -0.2711
      6 S1          1.4144   -1.6118    3.2838 S.3       1 <0>         0.1355
      7 C5          2.6142   -0.5131    2.5420 C.2       1 <0>         0.1839
      8 N1          1.9525   -0.0932    1.4727 N.2       1 <0>        -0.4971
      9 C6          3.9785   -0.1698    2.9959 C.ar      1 <0>        -0.0760
     10 C7          4.7564    0.7272    2.2624 C.ar      1 <0>        -0.0351
     11 C8          6.0285    1.0440    2.6914 C.ar      1 <0>        -0.1282
     12 C9          6.5356    0.4746    3.8463 C.ar      1 <0>        -0.0534
     13 C10         5.7720   -0.4152    4.5793 C.ar      1 <0>        -0.1483
     14 C11         4.4933   -0.7374    4.1645 C.ar      1 <0>         0.1300
     15 F1          3.7454   -1.6024    4.8840 F         1 <0>        -0.1249
     16 N2         -1.3761   -0.5125    0.0124 N.4       1 <0>        -0.6347
     17 H2          1.0039    1.9031    0.0027 H         1 <0>         0.1148
     18 H3         -0.5459    1.8868   -0.8726 H         1 <0>         0.0881
     19 H4         -0.5289    1.8773    0.9072 H         1 <0>         0.0805
     20 H5         -0.8588   -1.8224    2.0111 H         1 <0>         0.1979
     21 H6          4.3631    1.1723    1.3604 H         1 <0>         0.1467
     22 H7          6.6308    1.7381    2.1240 H         1 <0>         0.1456
     23 H8          7.5327    0.7261    4.1765 H         1 <0>         0.1476
     24 H9          6.1739   -0.8562    5.4795 H         1 <0>         0.1517
     25 H10        -1.8641   -0.1783   -0.8050 H         1 <0>         0.4438
     26 H11        -1.3624   -1.5214    0.0069 H         1 <0>         0.4368
     27 H12        -1.8484   -0.1871    0.8426 H         1 <0>         0.4351
@<TRIPOS>BOND
     1    1    2 1
     2    1   17 1
     3    1   18 1
     4    1   19 1
     5    2    3 1
     6    2    4 1
     7    2   16 1
     8    4    8 1
     9    4    5 2
    10    5    6 1
    11    5   20 1
    12    6    7 1
    13    7    8 2
    14    7    9 1
    15    9   14 ar
    16    9   10 ar
    17   10   11 ar
    18   10   21 1
    19   11   12 ar
    20   11   22 1
    21   12   13 ar
    22   12   23 1
    23   13   14 ar
    24   13   24 1
    25   14   15 1
    26   16   25 1
    27   16   26 1
    28   16   27 1
@<TRIPOS>MOLECULE
ZINC16678745
   20    21     0     0     0
SMALL
USER_CHARGES
2-(3,5-dichlorophenyl)thiazole-4-carboxylic acid
@<TRIPOS>ATOM
      1 C1          1.1658    2.4371    0.0040 C.ar      1 <0>        -0.0907
      2 C2          1.1453    3.8320    0.0117 C.ar      1 <0>         0.0393
      3 C3         -0.0760    4.5063    0.0270 C.ar      1 <0>        -0.0649
      4 C4         -1.2569    3.7903    0.0344 C.ar      1 <0>        -0.0210
      5 C5         -1.2304    2.4062    0.0210 C.ar      1 <0>        -0.0983
      6 C6         -0.0215    1.7317    0.0116 C.ar      1 <0>        -0.0215
      7 Cl1         0.0021   -0.0041    0.0020 Cl        1 <0>        -0.0558
      8 Cl2        -2.7775    4.6276    0.0534 Cl        1 <0>        -0.0511
      9 C7          2.4136    4.5933    0.0042 C.2       1 <0>         0.0831
     10 N1          2.5991    5.8996    0.0095 N.2       1 <0>        -0.4130
     11 C8          3.8278    6.3953    0.0009 C.2       1 <0>         0.0181
     12 C9          4.8996    5.5205   -0.0137 C.2       1 <0>        -0.1722
     13 S1          4.0916    3.9832   -0.0066 S.3       1 <0>         0.0321
     14 C10         4.0486    7.8503    0.0062 C.2       1 <0>         0.5164
     15 O1          5.1804    8.2933   -0.0022 O.co2     1 <0>        -0.6263
     16 H1          2.1083    1.9099   -0.0082 H         1 <0>         0.1439
     17 H2         -0.0978    5.5860    0.0326 H         1 <0>         0.1582
     18 H3         -2.1564    1.8505    0.0220 H         1 <0>         0.1467
     19 H4          5.9577    5.7363   -0.0222 H         1 <0>         0.2041
     20 O2          2.9955    8.6917    0.0204 O.co2     1 <0>        -0.7272
@<TRIPOS>BOND
     1    1    6 ar
     2    1    2 ar
     3    1   16 1
     4    2    3 ar
     5    2    9 1
     6    3    4 ar
     7    3   17 1
     8    4    5 ar
     9    4    8 1
    10    5    6 ar
    11    5   18 1
    12    6    7 1
    13    9   13 1
    14    9   10 2
    15   10   11 1
    16   11   12 2
    17   11   14 1
    18   12   13 1
    19   12   19 1
    20   14   15 2
    21   14   20 1
@<TRIPOS>MOLECULE
ZINC70840122
   27    28     0     0     0
SMALL
USER_CHARGES

@<TRIPOS>ATOM
      1 C1         -0.0187    1.5258    0.0104 C.3       1 <0>        -0.1770
      2 C2          0.0021   -0.0041    0.0020 C.3       1 <0>         0.1176
      3 H1          0.5123   -0.3556   -0.8948 H         1 <0>         0.1532
      4 C3         -1.4117   -0.5257    0.0127 C.2       1 <0>        -0.0099
      5 C4         -1.8245   -1.3932   -0.9488 C.2       1 <0>        -0.1861
      6 S1         -3.5209   -1.6582   -0.4481 S.3       1 <0>         0.1282
      7 C5         -3.4951   -0.5874    0.9836 C.2       1 <0>         0.1703
      8 N1         -2.2449   -0.1472    0.9537 N.2       1 <0>        -0.5104
      9 C6         -4.5753   -0.2800    1.9448 C.ar      1 <0>        -0.0722
     10 C7         -4.3428    0.5997    3.0029 C.ar      1 <0>        -0.0398
     11 C8         -5.3549    0.8829    3.8962 C.ar      1 <0>        -0.1284
     12 C9         -6.5997    0.2970    3.7465 C.ar      1 <0>        -0.0555
     13 C10        -6.8391   -0.5759    2.7011 C.ar      1 <0>        -0.1471
     14 C11        -5.8358   -0.8645    1.7949 C.ar      1 <0>         0.1290
     15 F1         -6.0716   -1.7129    0.7704 F         1 <0>        -0.1241
     16 N2          0.7126   -0.4907    1.1921 N.4       1 <0>        -0.6340
     17 H2          1.0039    1.9031    0.0027 H         1 <0>         0.0863
     18 H3         -0.5459    1.8868   -0.8726 H         1 <0>         0.1036
     19 H4         -0.5289    1.8773    0.9072 H         1 <0>         0.0897
     20 H5         -1.2794   -1.8073   -1.7842 H         1 <0>         0.2103
     21 H6         -3.3720    1.0577    3.1223 H         1 <0>         0.1436
     22 H7         -5.1753    1.5637    4.7152 H         1 <0>         0.1444
     23 H8         -7.3878    0.5222    4.4497 H         1 <0>         0.1471
     24 H9         -7.8126   -1.0300    2.5902 H         1 <0>         0.1515
     25 H10         0.2403   -0.1653    2.0223 H         1 <0>         0.4377
     26 H11         0.7262   -1.4996    1.1866 H         1 <0>         0.4347
     27 H12         1.6592   -0.1415    1.1850 H         1 <0>         0.4373
@<TRIPOS>BOND
     1    1    2 1
     2    1   17 1
     3    1   18 1
     4    1   19 1
     5    2    3 1
     6    2    4 1
     7    2   16 1
     8    4    8 1
     9    4    5 2
    10    5    6 1
    11    5   20 1
    12    6    7 1
    13    7    8 2
    14    7    9 1
    15    9   14 ar
    16    9   10 ar
    17   10   11 ar
    18   10   21 1
    19   11   12 ar
    20   11   22 1
    21   12   13 ar
    22   12   23 1
    23   13   14 ar
    24   13   24 1
    25   14   15 1
    26   16   25 1
    27   16   26 1
    28   16   27 1
@<TRIPOS>MOLECULE
ZINC35163444
   34    35     0     0     0
SMALL
USER_CHARGES

@<TRIPOS>ATOM
      1 C1         -0.0169    1.3914    0.0097 C.ar      1 <0>        -0.0532
      2 C2          1.1695    2.0947    0.0021 C.ar      1 <0>        -0.1500
      3 C3          2.3789    1.4182   -0.0135 C.ar      1 <0>         0.1395
      4 C4          2.4033    0.0326   -0.0212 C.ar      1 <0>        -0.1556
      5 C5          1.2228   -0.6804   -0.0137 C.ar      1 <0>        -0.0329
      6 C6          0.0021   -0.0041    0.0020 C.ar      1 <0>        -0.0553
      7 C7         -1.2666   -0.7632    0.0105 C.2       1 <0>         0.1845
      8 N1         -1.4625   -2.0744    0.0109 N.2       1 <0>        -0.5082
      9 C8         -2.6728   -2.5824    0.0199 C.2       1 <0>        -0.0093
     10 C9         -3.7535   -1.7580    0.0291 C.2       1 <0>        -0.1816
     11 S1         -2.9497   -0.1603    0.0311 S.3       1 <0>         0.0982
     12 C10        -2.8638   -4.0772    0.0196 C.3       1 <0>         0.0786
     13 N2         -2.8166   -4.5766   -1.3611 N.4       1 <0>        -0.5070
     14 C11        -3.0028   -6.0337   -1.3614 C.3       1 <0>        -0.0050
     15 C12        -2.9536   -6.5538   -2.7995 C.3       1 <0>        -0.1538
     16 C13        -3.1476   -8.0715   -2.7998 C.3       1 <0>         0.0797
     17 O1         -3.1017   -8.5573   -4.1429 O.3       1 <0>        -0.5710
     18 F1          3.5381    2.1119   -0.0217 F         1 <0>        -0.1239
     19 H1         -0.9588    1.9196    0.0260 H         1 <0>         0.1394
     20 H2          1.1559    3.1746    0.0081 H         1 <0>         0.1520
     21 H3          3.3485   -0.4898   -0.0334 H         1 <0>         0.1503
     22 H4          1.2429   -1.7602   -0.0204 H         1 <0>         0.1454
     23 H5         -4.8058   -2.0005    0.0368 H         1 <0>         0.2109
     24 H6         -2.0705   -4.5450    0.6025 H         1 <0>         0.1462
     25 H7         -3.8305   -4.3200    0.4609 H         1 <0>         0.1469
     26 H8         -3.5510   -4.1435   -1.9007 H         1 <0>         0.4277
     27 H9         -2.2095   -6.5016   -0.7785 H         1 <0>         0.1363
     28 H10        -3.9695   -6.2766   -0.9201 H         1 <0>         0.1362
     29 H11        -3.7470   -6.0860   -3.3824 H         1 <0>         0.0949
     30 H12        -1.9870   -6.3110   -3.2408 H         1 <0>         0.0951
     31 H13        -2.3543   -8.5393   -2.2169 H         1 <0>         0.0573
     32 H14        -4.1143   -8.3143   -2.3585 H         1 <0>         0.0572
     33 H15        -3.2179   -9.5142   -4.2193 H         1 <0>         0.3977
     34 H16        -1.9218   -4.3518   -1.7696 H         1 <0>         0.4326
@<TRIPOS>BOND
     1    1    6 ar
     2    1    2 ar
     3    1   19 1
     4    2    3 ar
     5    2   20 1
     6    3    4 ar
     7    3   18 1
     8    4    5 ar
     9    4   21 1
    10    5    6 ar
    11    5   22 1
    12    6    7 1
    13    7   11 1
    14    7    8 2
    15    8    9 1
    16    9   10 2
    17    9   12 1
    18   10   11 1
    19   10   23 1
    20   12   13 1
    21   12   24 1
    22   12   25 1
    23   13   14 1
    24   13   26 1
    25   13   34 1
    26   14   15 1
    27   14   27 1
    28   14   28 1
    29   15   16 1
    30   15   29 1
    31   15   30 1
    32   16   17 1
    33   16   31 1
    34   16   32 1
    35   17   33 1
@<TRIPOS>MOLECULE
ZINC35163463
   31    33     0     0     0
SMALL
USER_CHARGES

@<TRIPOS>ATOM
      1 C1         -0.0169    1.3914    0.0097 C.ar      1 <0>        -0.0533
      2 C2          1.1695    2.0947    0.0021 C.ar      1 <0>        -0.1500
      3 C3          2.3789    1.4182   -0.0135 C.ar      1 <0>         0.1392
      4 C4          2.4033    0.0326   -0.0212 C.ar      1 <0>        -0.1555
      5 C5          1.2228   -0.6804   -0.0137 C.ar      1 <0>        -0.0332
      6 C6          0.0021   -0.0041    0.0020 C.ar      1 <0>        -0.0548
      7 C7         -1.2666   -0.7632    0.0105 C.2       1 <0>         0.1836
      8 N1         -1.4625   -2.0744    0.0109 N.2       1 <0>        -0.5078
      9 C8         -2.6728   -2.5824    0.0199 C.2       1 <0>        -0.0094
     10 C9         -3.7535   -1.7580    0.0291 C.2       1 <0>        -0.1809
     11 S1         -2.9497   -0.1603    0.0311 S.3       1 <0>         0.0972
     12 C10        -2.8638   -4.0772    0.0196 C.3       1 <0>         0.0831
     13 N2         -2.8166   -4.5766   -1.3611 N.4       1 <0>        -0.4783
     14 C11        -3.0028   -6.0337   -1.3614 C.3       1 <0>        -0.0841
     15 C12        -1.8426   -6.8941   -1.8659 C.3       1 <0>        -0.1534
     16 C13        -3.1026   -6.7329   -2.7187 C.3       1 <0>        -0.1540
     17 F1          3.5381    2.1119   -0.0217 F         1 <0>        -0.1239
     18 H1         -0.9588    1.9196    0.0260 H         1 <0>         0.1395
     19 H2          1.1559    3.1746    0.0081 H         1 <0>         0.1520
     20 H3          3.3485   -0.4898   -0.0334 H         1 <0>         0.1502
     21 H4          1.2429   -1.7602   -0.0204 H         1 <0>         0.1453
     22 H5         -4.8058   -2.0005    0.0368 H         1 <0>         0.2111
     23 H6         -2.0705   -4.5450    0.6025 H         1 <0>         0.1455
     24 H7         -3.8305   -4.3200    0.4609 H         1 <0>         0.1460
     25 H8         -3.5510   -4.1435   -1.9007 H         1 <0>         0.4267
     26 H9         -3.6064   -6.4307   -0.5452 H         1 <0>         0.1794
     27 H10        -0.9411   -6.3789   -2.1976 H         1 <0>         0.1212
     28 H11        -1.6826   -7.8574   -1.3815 H         1 <0>         0.1345
     29 H12        -3.7716   -7.5900   -2.7953 H         1 <0>         0.1349
     30 H13        -3.0301   -6.1116   -3.6114 H         1 <0>         0.1204
     31 H14        -1.9218   -4.3518   -1.7696 H         1 <0>         0.4286
@<TRIPOS>BOND
     1    1    6 ar
     2    1    2 ar
     3    1   18 1
     4    2    3 ar
     5    2   19 1
     6    3    4 ar
     7    3   17 1
     8    4    5 ar
     9    4   20 1
    10    5    6 ar
    11    5   21 1
    12    6    7 1
    13    7   11 1
    14    7    8 2
    15    8    9 1
    16    9   10 2
    17    9   12 1
    18   10   11 1
    19   10   22 1
    20   12   13 1
    21   12   23 1
    22   12   24 1
    23   13   14 1
    24   13   25 1
    25   13   31 1
    26   14   16 1
    27   14   15 1
    28   14   26 1
    29   15   16 1
    30   15   27 1
    31   15   28 1
    32   16   29 1
    33   16   30 1
@<TRIPOS>MOLECULE
ZINC49754955
   37    38     0     0     0
SMALL
USER_CHARGES

@<TRIPOS>ATOM
      1 C1          1.0955   -2.4119    0.1075 C.3       1 <0>        -0.1879
      2 C2          0.5820   -1.9306   -1.2510 C.3       1 <0>        -0.0166
      3 N1          0.5755   -0.4619   -1.2797 N.4       1 <0>        -0.3815
      4 C3         -0.0359    0.0006   -2.5328 C.3       1 <0>        -0.0072
      5 C4         -1.5090   -0.4114   -2.5641 C.3       1 <0>         0.0464
      6 O1         -2.2160    0.2687   -1.5249 O.3       1 <0>        -0.5796
      7 C5          1.9550    0.0356   -1.1950 C.3       1 <0>         0.0713
      8 C6          1.9410    1.5383   -1.0817 C.2       1 <0>        -0.0016
      9 C7          1.9972    2.1295    0.1414 C.2       1 <0>        -0.1829
     10 S1          1.9499    3.8556   -0.3241 S.3       1 <0>         0.0919
     11 C8          1.8607    3.6020   -2.0918 C.2       1 <0>         0.1842
     12 N2          1.8800    2.2784   -2.1635 N.2       1 <0>        -0.5094
     13 C9          1.7899    4.5999   -3.1807 C.ar      1 <0>        -0.0418
     14 C10         1.7196    4.1823   -4.5104 C.ar      1 <0>        -0.0649
     15 C11         1.6539    5.1184   -5.5217 C.ar      1 <0>        -0.1204
     16 C12         1.6580    6.4686   -5.2199 C.ar      1 <0>        -0.0838
     17 C13         1.7280    6.8892   -3.9037 C.ar      1 <0>        -0.1144
     18 C14         1.7874    5.9632   -2.8827 C.ar      1 <0>        -0.0843
     19 H1          2.1441   -2.1357    0.2182 H         1 <0>         0.0812
     20 H2          0.5115   -1.9474    0.9020 H         1 <0>         0.0803
     21 H3          0.9967   -3.4957    0.1701 H         1 <0>         0.1071
     22 H4          1.2337   -2.3066   -2.0397 H         1 <0>         0.1314
     23 H5         -0.4307   -2.3016   -1.4089 H         1 <0>         0.1308
     24 H6          0.0392    1.0863   -2.5946 H         1 <0>         0.1423
     25 H7          0.4850   -0.4483   -3.3785 H         1 <0>         0.1419
     26 H8         -1.9398   -0.1470   -3.5298 H         1 <0>         0.0935
     27 H9         -1.5885   -1.4879   -2.4132 H         1 <0>         0.0710
     28 H10        -3.1582    0.0549   -1.4852 H         1 <0>         0.4070
     29 H11         2.4417   -0.3904   -0.3177 H         1 <0>         0.1453
     30 H12         2.5021   -0.2561   -2.0915 H         1 <0>         0.1425
     31 H13         2.0543    1.6810    1.1222 H         1 <0>         0.2090
     32 H14         1.7170    3.1286   -4.7473 H         1 <0>         0.1334
     33 H15         1.5994    4.7966   -6.5512 H         1 <0>         0.1359
     34 H16         1.6067    7.1975   -6.0152 H         1 <0>         0.1354
     35 H17         1.7312    7.9447   -3.6747 H         1 <0>         0.1379
     36 H18         1.8368    6.2927   -1.8554 H         1 <0>         0.1285
     37 H19         0.0433   -0.1126   -0.4968 H         1 <0>         0.4277
@<TRIPOS>BOND
     1    1    2 1
     2    1   19 1
     3    1   20 1
     4    1   21 1
     5    2    3 1
     6    2   22 1
     7    2   23 1
     8    3    4 1
     9    3    7 1
    10    3   37 1
    11    4    5 1
    12    4   24 1
    13    4   25 1
    14    5    6 1
    15    5   26 1
    16    5   27 1
    17    6   28 1
    18    7    8 1
    19    7   29 1
    20    7   30 1
    21    8   12 1
    22    8    9 2
    23    9   10 1
    24    9   31 1
    25   10   11 1
    26   11   12 2
    27   11   13 1
    28   13   18 ar
    29   13   14 ar
    30   14   15 ar
    31   14   32 1
    32   15   16 ar
    33   15   33 1
    34   16   17 ar
    35   16   34 1
    36   17   18 ar
    37   17   35 1
    38   18   36 1
@<TRIPOS>MOLECULE
ZINC49754067
   38    39     0     0     0
SMALL
USER_CHARGES

@<TRIPOS>ATOM
      1 C1          0.2704    1.3465   -0.6117 C.ar      1 <0>        -0.0840
      2 C2          1.3782    2.1007   -0.2682 C.ar      1 <0>        -0.1144
      3 C3          2.5932    1.4859   -0.0461 C.ar      1 <0>        -0.0843
      4 C4          2.7032    0.1002   -0.1686 C.ar      1 <0>        -0.0414
      5 C5          1.5820   -0.6548   -0.5153 C.ar      1 <0>        -0.0650
      6 C6          0.3728   -0.0278   -0.7348 C.ar      1 <0>        -0.1204
      7 C7          4.0024   -0.5653    0.0676 C.2       1 <0>         0.1839
      8 N1          4.3136   -1.8519   -0.0023 N.2       1 <0>        -0.5094
      9 C8          5.5324   -2.2724    0.2421 C.2       1 <0>        -0.0012
     10 C9          6.5030   -1.3802    0.5744 C.2       1 <0>        -0.1804
     11 S1          5.5786    0.1497    0.5167 S.3       1 <0>         0.0923
     12 C10         5.8556   -3.7418    0.1552 C.3       1 <0>         0.0704
     13 N2          5.5265   -4.3919    1.4307 N.4       1 <0>        -0.3792
     14 C11         4.0761   -4.3255    1.6543 C.3       1 <0>        -0.0081
     15 C12         3.7495   -4.8675    3.0473 C.3       1 <0>         0.0474
     16 O1          4.3495   -4.0295    4.0372 O.3       1 <0>        -0.5775
     17 C13         5.9516   -5.7974    1.3880 C.3       1 <0>        -0.0116
     18 C14         7.4777   -5.8663    1.3039 C.3       1 <0>         0.0457
     19 O2          8.0458   -5.3108    2.4916 O.3       1 <0>        -0.5769
     20 H1         -0.6794    1.8321   -0.7802 H         1 <0>         0.1354
     21 H2          1.2918    3.1731   -0.1741 H         1 <0>         0.1379
     22 H3          3.4573    2.0759    0.2217 H         1 <0>         0.1285
     23 H4          1.6608   -1.7276   -0.6121 H         1 <0>         0.1335
     24 H5         -0.4957   -0.6110   -1.0028 H         1 <0>         0.1359
     25 H6          7.5446   -1.5483    0.8053 H         1 <0>         0.2086
     26 H7          5.2712   -4.1955   -0.6453 H         1 <0>         0.1430
     27 H8          6.9179   -3.8684   -0.0538 H         1 <0>         0.1421
     28 H9          3.7441   -3.2899    1.5803 H         1 <0>         0.1434
     29 H10         3.5647   -4.9257    0.9018 H         1 <0>         0.1418
     30 H11         2.6687   -4.8797    3.1882 H         1 <0>         0.0932
     31 H12         4.1400   -5.8806    3.1438 H         1 <0>         0.0699
     32 H13         4.1835   -4.3140    4.9464 H         1 <0>         0.4069
     33 H14         5.6141   -6.3066    2.2907 H         1 <0>         0.1387
     34 H15         5.5172   -6.2819    0.5135 H         1 <0>         0.1441
     35 H16         7.7895   -6.9060    1.2038 H         1 <0>         0.0963
     36 H17         7.8198   -5.2995    0.4380 H         1 <0>         0.0712
     37 H18         9.0109   -5.2515    2.4755 H         1 <0>         0.4074
     38 H19         6.0047   -3.9186    2.1826 H         1 <0>         0.4363
@<TRIPOS>BOND
     1    1    6 ar
     2    1    2 ar
     3    1   20 1
     4    2    3 ar
     5    2   21 1
     6    3    4 ar
     7    3   22 1
     8    4    5 ar
     9    4    7 1
    10    5    6 ar
    11    5   23 1
    12    6   24 1
    13    7   11 1
    14    7    8 2
    15    8    9 1
    16    9   10 2
    17    9   12 1
    18   10   11 1
    19   10   25 1
    20   12   13 1
    21   12   26 1
    22   12   27 1
    23   13   14 1
    24   13   17 1
    25   13   38 1
    26   14   15 1
    27   14   28 1
    28   14   29 1
    29   15   16 1
    30   15   30 1
    31   15   31 1
    32   16   32 1
    33   17   18 1
    34   17   33 1
    35   17   34 1
    36   18   19 1
    37   18   35 1
    38   18   36 1
    39   19   37 1
@<TRIPOS>MOLECULE
ZINC49670108
   33    34     0     0     0
SMALL
USER_CHARGES

@<TRIPOS>ATOM
      1 C1         -0.1703    1.4945    0.0998 C.3       1 <0>        -0.1212
      2 C2         -0.0700   -0.0081    0.0449 C.ar      1 <0>        -0.0833
      3 C3         -0.2092   -0.6656   -1.1647 C.ar      1 <0>        -0.0827
      4 C4         -0.1184   -2.0447   -1.2237 C.ar      1 <0>        -0.1155
      5 C5          0.1117   -2.7737   -0.0749 C.ar      1 <0>        -0.0419
      6 C6          0.2535   -2.1168    1.1478 C.ar      1 <0>        -0.0413
      7 C7          0.1661   -0.7248    1.1996 C.ar      1 <0>        -0.0803
      8 C8          0.4998   -2.8918    2.3829 C.2       1 <0>         0.1912
      9 N1          1.3584   -3.8781    2.6000 N.2       1 <0>        -0.4994
     10 C9          1.4452   -4.4601    3.7729 C.2       1 <0>        -0.0150
     11 C10         0.6441   -4.0519    4.7927 C.2       1 <0>        -0.1821
     12 S1         -0.2747   -2.7456    3.9878 S.3       1 <0>         0.0903
     13 C11         2.4309   -5.5794    3.9890 C.3       1 <0>         0.0769
     14 N2          1.8311   -6.8498    3.5599 N.4       1 <0>        -0.5087
     15 C12         2.7920   -7.9408    3.7706 C.3       1 <0>        -0.0468
     16 C13         0.2093   -4.2761   -0.1408 C.3       1 <0>        -0.1108
     17 H1          0.8178    1.9303   -0.0483 H         1 <0>         0.0776
     18 H2         -0.8422    1.8427   -0.6847 H         1 <0>         0.0748
     19 H3         -0.5590    1.7974    1.0720 H         1 <0>         0.0709
     20 H4         -0.3898   -0.0996   -2.0666 H         1 <0>         0.1352
     21 H5         -0.2284   -2.5519   -2.1708 H         1 <0>         0.1361
     22 H6          0.2790   -0.2102    2.1424 H         1 <0>         0.1295
     23 H7          0.5826   -4.4134    5.8085 H         1 <0>         0.2094
     24 H8          3.3318   -5.3877    3.4061 H         1 <0>         0.1448
     25 H9          2.6881   -5.6379    5.0466 H         1 <0>         0.1454
     26 H10         0.9972   -7.0272    4.0995 H         1 <0>         0.4282
     27 H11         2.3469   -8.8835    3.4522 H         1 <0>         0.1277
     28 H12         3.6928   -7.7492    3.1877 H         1 <0>         0.1252
     29 H13         3.0491   -7.9993    4.8282 H         1 <0>         0.1251
     30 H14         1.2564   -4.5691   -0.2177 H         1 <0>         0.0782
     31 H15        -0.2236   -4.7082    0.7613 H         1 <0>         0.0570
     32 H16        -0.3342   -4.6375   -1.0138 H         1 <0>         0.0727
     33 H17         1.5930   -6.7957    2.5809 H         1 <0>         0.4325
@<TRIPOS>BOND
     1    1    2 1
     2    1   17 1
     3    1   18 1
     4    1   19 1
     5    2    7 ar
     6    2    3 ar
     7    3    4 ar
     8    3   20 1
     9    4    5 ar
    10    4   21 1
    11    5    6 ar
    12    5   16 1
    13    6    7 ar
    14    6    8 1
    15    7   22 1
    16    8   12 1
    17    8    9 2
    18    9   10 1
    19   10   11 2
    20   10   13 1
    21   11   12 1
    22   11   23 1
    23   13   14 1
    24   13   24 1
    25   13   25 1
    26   14   15 1
    27   14   26 1
    28   14   33 1
    29   15   27 1
    30   15   28 1
    31   15   29 1
    32   16   30 1
    33   16   31 1
    34   16   32 1
@<TRIPOS>MOLECULE
ZINC70842606
   31    32     0     0     0
SMALL
USER_CHARGES

@<TRIPOS>ATOM
      1 C1         -0.0187    1.5258    0.0104 C.3       1 <0>        -0.1771
      2 C2          0.0021   -0.0041    0.0020 C.3       1 <0>         0.1171
      3 H1          0.5293   -0.3651    0.8851 H         1 <0>         0.1528
      4 C3          0.7074   -0.4901   -1.2379 C.2       1 <0>        -0.0055
      5 C4          1.7596   -1.3433   -1.1318 C.2       1 <0>        -0.1796
      6 S1          2.1781   -1.5677   -2.8561 S.3       1 <0>         0.0891
      7 C5          0.9089   -0.5030   -3.5287 C.2       1 <0>         0.1910
      8 N1          0.3028   -0.0939   -2.4225 N.2       1 <0>        -0.5179
      9 C6          0.6121   -0.1721   -4.9380 C.ar      1 <0>        -0.0545
     10 C7         -0.4353    0.6986   -5.2465 C.ar      1 <0>        -0.0402
     11 C8         -0.7094    1.0057   -6.5610 C.ar      1 <0>        -0.1052
     12 C9          0.0559    0.4490   -7.5810 C.ar      1 <0>        -0.0513
     13 C10         1.0997   -0.4191   -7.2766 C.ar      1 <0>        -0.1351
     14 C11         1.3822   -0.7249   -5.9635 C.ar      1 <0>        -0.0581
     15 S2         -0.2980    0.8436   -9.2614 S.3       1 <0>        -0.0849
     16 C12         0.9346   -0.0979  -10.2022 C.3       1 <0>        -0.1527
     17 N2         -1.3761   -0.5125    0.0124 N.4       1 <0>        -0.6340
     18 H2          1.0039    1.9031    0.0027 H         1 <0>         0.1035
     19 H3         -0.5459    1.8868   -0.8726 H         1 <0>         0.0900
     20 H4         -0.5289    1.8773    0.9072 H         1 <0>         0.0861
     21 H5          2.2166   -1.7683   -0.2504 H         1 <0>         0.2097
     22 H6         -1.0300    1.1304   -4.4552 H         1 <0>         0.1393
     23 H7         -1.5193    1.6789   -6.8002 H         1 <0>         0.1417
     24 H8          1.6919   -0.8501   -8.0703 H         1 <0>         0.1376
     25 H9          2.1954   -1.3953   -5.7275 H         1 <0>         0.1319
     26 H10         1.9354    0.2184   -9.9080 H         1 <0>         0.0895
     27 H11         0.8143   -1.1614   -9.9960 H         1 <0>         0.0893
     28 H12         0.7946    0.0838  -11.2678 H         1 <0>         0.1176
     29 H13        -1.8641   -0.1783   -0.8050 H         1 <0>         0.4381
     30 H14        -1.3624   -1.5214    0.0069 H         1 <0>         0.4346
     31 H15        -1.8484   -0.1871    0.8426 H         1 <0>         0.4372
@<TRIPOS>BOND
     1    1    2 1
     2    1   18 1
     3    1   19 1
     4    1   20 1
     5    2    3 1
     6    2    4 1
     7    2   17 1
     8    4    8 1
     9    4    5 2
    10    5    6 1
    11    5   21 1
    12    6    7 1
    13    7    8 2
    14    7    9 1
    15    9   14 ar
    16    9   10 ar
    17   10   11 ar
    18   10   22 1
    19   11   12 ar
    20   11   23 1
    21   12   13 ar
    22   12   15 1
    23   13   14 ar
    24   13   24 1
    25   14   25 1
    26   15   16 1
    27   16   26 1
    28   16   27 1
    29   16   28 1
    30   17   29 1
    31   17   30 1
    32   17   31 1
@<TRIPOS>MOLECULE
ZINC49634171
   34    35     0     0     0
SMALL
USER_CHARGES

@<TRIPOS>ATOM
      1 C1         -0.0416    1.4829   -0.0298 C.3       1 <0>        -0.0420
      2 N1         -0.1068    0.0157   -0.0618 N.4       1 <0>        -0.3826
      3 C2          0.5820   -0.4790   -1.2614 C.3       1 <0>        -0.0051
      4 C3          0.3775   -1.9906   -1.3800 C.3       1 <0>         0.0437
      5 O1         -1.0082   -2.2687   -1.5910 O.3       1 <0>        -0.5801
      6 C4          0.5445   -0.5297    1.1367 C.3       1 <0>         0.0710
      7 C5         -0.2345   -0.1227    2.3609 C.2       1 <0>        -0.0022
      8 C6         -1.1649   -0.9633    2.8866 C.2       1 <0>        -0.1827
      9 S1         -1.7443    0.0102    4.2705 S.3       1 <0>         0.0898
     10 C7         -0.6870    1.4262    3.9985 C.2       1 <0>         0.1848
     11 N2         -0.0121    1.0413    2.9244 N.2       1 <0>        -0.5080
     12 C8         -0.5883    2.6852    4.7676 C.ar      1 <0>        -0.0430
     13 C9          0.3113    3.6772    4.3753 C.ar      1 <0>        -0.0643
     14 C10         0.3987    4.8497    5.0973 C.ar      1 <0>        -0.1204
     15 C11        -0.4029    5.0427    6.2084 C.ar      1 <0>        -0.0833
     16 C12        -1.2965    4.0629    6.6029 C.ar      1 <0>        -0.1145
     17 C13        -1.3983    2.8887    5.8856 C.ar      1 <0>        -0.0842
     18 H1          0.9937    1.7978    0.1012 H         1 <0>         0.1243
     19 H2         -0.4277    1.8843   -0.9667 H         1 <0>         0.1214
     20 H3         -0.6424    1.8552    0.8000 H         1 <0>         0.1214
     21 H4          0.1734    0.0133   -2.1439 H         1 <0>         0.1402
     22 H5          1.6473   -0.2614   -1.1844 H         1 <0>         0.1440
     23 H6          0.9566   -2.3706   -2.2216 H         1 <0>         0.0964
     24 H7          0.7097   -2.4753   -0.4620 H         1 <0>         0.0712
     25 H8         -1.2120   -3.2102   -1.6756 H         1 <0>         0.4090
     26 H9          0.5751   -1.6173    1.0705 H         1 <0>         0.1412
     27 H10         1.5605   -0.1413    1.2067 H         1 <0>         0.1431
     28 H11        -1.4698   -1.9462    2.5590 H         1 <0>         0.2088
     29 H12         0.9381    3.5274    3.5086 H         1 <0>         0.1340
     30 H13         1.0945    5.6182    4.7948 H         1 <0>         0.1362
     31 H14        -0.3304    5.9621    6.7704 H         1 <0>         0.1356
     32 H15        -1.9191    4.2196    7.4713 H         1 <0>         0.1380
     33 H16        -2.0999    2.1268    6.1915 H         1 <0>         0.1284
     34 H17        -1.0720   -0.2777   -0.0831 H         1 <0>         0.4301
@<TRIPOS>BOND
     1    1    2 1
     2    1   18 1
     3    1   19 1
     4    1   20 1
     5    2    3 1
     6    2    6 1
     7    2   34 1
     8    3    4 1
     9    3   21 1
    10    3   22 1
    11    4    5 1
    12    4   23 1
    13    4   24 1
    14    5   25 1
    15    6    7 1
    16    6   26 1
    17    6   27 1
    18    7   11 1
    19    7    8 2
    20    8    9 1
    21    8   28 1
    22    9   10 1
    23   10   11 2
    24   10   12 1
    25   12   17 ar
    26   12   13 ar
    27   13   14 ar
    28   13   29 1
    29   14   15 ar
    30   14   30 1
    31   15   16 ar
    32   15   31 1
    33   16   17 ar
    34   16   32 1
    35   17   33 1
@<TRIPOS>MOLECULE
ZINC70842603
   31    32     0     0     0
SMALL
USER_CHARGES

@<TRIPOS>ATOM
      1 C1         -0.0187    1.5258    0.0104 C.3       1 <0>        -0.1746
      2 C2          0.0021   -0.0041    0.0020 C.3       1 <0>         0.1092
      3 H1          0.5293   -0.3651    0.8851 H         1 <0>         0.1576
      4 C3         -1.4117   -0.5257    0.0127 C.2       1 <0>         0.0434
      5 C4         -1.8243   -1.3929   -0.9486 C.2       1 <0>        -0.2651
      6 S1         -3.5207   -1.6582   -0.4482 S.3       1 <0>         0.0956
      7 C5         -3.4955   -0.5876    0.9836 C.2       1 <0>         0.2048
      8 N1         -2.2451   -0.1471    0.9540 N.2       1 <0>        -0.5047
      9 C6         -4.5757   -0.2803    1.9440 C.ar      1 <0>        -0.0586
     10 C7         -4.3413    0.6002    3.0023 C.ar      1 <0>        -0.0355
     11 C8         -5.3501    0.8852    3.8958 C.ar      1 <0>        -0.1053
     12 C9         -6.6017    0.2964    3.7450 C.ar      1 <0>        -0.0496
     13 C10        -6.8380   -0.5816    2.6918 C.ar      1 <0>        -0.1366
     14 C11        -5.8346   -0.8654    1.7917 C.ar      1 <0>        -0.0564
     15 S2         -7.8897    0.6628    4.8902 S.3       1 <0>        -0.0834
     16 C12        -9.2966   -0.3164    4.2964 C.3       1 <0>        -0.1531
     17 N2          0.6897   -0.4778   -1.2066 N.4       1 <0>        -0.6348
     18 H2          1.0039    1.9031    0.0027 H         1 <0>         0.0879
     19 H3         -0.5459    1.8868   -0.8726 H         1 <0>         0.0804
     20 H4         -0.5289    1.8773    0.9072 H         1 <0>         0.1152
     21 H5         -1.2788   -1.8073   -1.7835 H         1 <0>         0.1972
     22 H6         -3.3698    1.0570    3.1203 H         1 <0>         0.1425
     23 H7         -5.1694    1.5661    4.7145 H         1 <0>         0.1429
     24 H8         -7.8103   -1.0376    2.5773 H         1 <0>         0.1379
     25 H9         -6.0198   -1.5435    0.9718 H         1 <0>         0.1317
     26 H10        -9.5500   -0.0099    3.2815 H         1 <0>         0.0892
     27 H11        -9.0313   -1.3736    4.3012 H         1 <0>         0.0893
     28 H12       -10.1538   -0.1539    4.9497 H         1 <0>         0.1175
     29 H13         1.6363   -0.1286   -1.2138 H         1 <0>         0.4438
     30 H14         0.7033   -1.4867   -1.2121 H         1 <0>         0.4367
     31 H15         0.2017   -0.1436   -2.0240 H         1 <0>         0.4350
@<TRIPOS>BOND
     1    1    2 1
     2    1   18 1
     3    1   19 1
     4    1   20 1
     5    2    3 1
     6    2    4 1
     7    2   17 1
     8    4    8 1
     9    4    5 2
    10    5    6 1
    11    5   21 1
    12    6    7 1
    13    7    8 2
    14    7    9 1
    15    9   14 ar
    16    9   10 ar
    17   10   11 ar
    18   10   22 1
    19   11   12 ar
    20   11   23 1
    21   12   13 ar
    22   12   15 1
    23   13   14 ar
    24   13   24 1
    25   14   25 1
    26   15   16 1
    27   16   26 1
    28   16   27 1
    29   16   28 1
    30   17   29 1
    31   17   30 1
    32   17   31 1
@<TRIPOS>MOLECULE
ZINC40999771
   28    29     0     0     0
SMALL
USER_CHARGES

@<TRIPOS>ATOM
      1 C1         -0.0169    1.3918    0.0097 C.ar      1 <0>        -0.0461
      2 C2          1.1684    2.0953    0.0022 C.ar      1 <0>        -0.1311
      3 C3          2.3804    1.4174   -0.0135 C.ar      1 <0>         0.1464
      4 C4          2.4034    0.0288   -0.0212 C.ar      1 <0>        -0.1952
      5 C5          1.2224   -0.6819   -0.0133 C.ar      1 <0>        -0.0209
      6 C6          0.0021   -0.0041    0.0020 C.ar      1 <0>        -0.0714
      7 C7         -1.2667   -0.7624    0.0105 C.2       1 <0>         0.1916
      8 N1         -1.4634   -2.0736    0.0109 N.2       1 <0>        -0.5130
      9 C8         -2.6743   -2.5808    0.0192 C.2       1 <0>        -0.0116
     10 C9         -3.7542   -1.7558    0.0277 C.2       1 <0>        -0.1851
     11 S1         -2.9495   -0.1586    0.0311 S.3       1 <0>         0.0933
     12 C10        -2.8664   -4.0755    0.0189 C.3       1 <0>         0.0794
     13 N2         -2.8186   -4.5750   -1.3618 N.4       1 <0>        -0.6349
     14 O1          3.5465    2.1143   -0.0218 O.3       1 <0>        -0.3132
     15 C11         4.7564    1.3543   -0.0379 C.3       1 <0>         0.4114
     16 F1          4.8121    0.5420    1.0998 F         1 <0>        -0.1940
     17 F2          4.7889    0.5535   -1.1846 F         1 <0>        -0.1947
     18 H1         -0.9589    1.9197    0.0260 H         1 <0>         0.1401
     19 H2          1.1546    3.1752    0.0081 H         1 <0>         0.1515
     20 H3          3.3478   -0.4948   -0.0337 H         1 <0>         0.1465
     21 H4          1.2411   -1.7617   -0.0196 H         1 <0>         0.1419
     22 H5         -4.8067   -1.9977    0.0347 H         1 <0>         0.2103
     23 H6         -2.0737   -4.5438    0.6023 H         1 <0>         0.1471
     24 H7         -3.8335   -4.3176    0.4596 H         1 <0>         0.1482
     25 H8         -3.5524   -4.1414   -1.9019 H         1 <0>         0.4338
     26 H9         -1.9234   -4.3508   -1.7698 H         1 <0>         0.4384
     27 H10         5.6107    2.0312   -0.0431 H         1 <0>         0.1910
     28 H11        -2.9473   -5.5757   -1.3620 H         1 <0>         0.4403
@<TRIPOS>BOND
     1    1    6 ar
     2    1    2 ar
     3    1   18 1
     4    2    3 ar
     5    2   19 1
     6    3    4 ar
     7    3   14 1
     8    4    5 ar
     9    4   20 1
    10    5    6 ar
    11    5   21 1
    12    6    7 1
    13    7   11 1
    14    7    8 2
    15    8    9 1
    16    9   10 2
    17    9   12 1
    18   10   11 1
    19   10   22 1
    20   12   13 1
    21   12   23 1
    22   12   24 1
    23   13   25 1
    24   13   26 1
    25   13   28 1
    26   14   15 1
    27   15   16 1
    28   15   17 1
    29   15   27 1
@<TRIPOS>MOLECULE
ZINC70840413
   27    28     0     0     0
SMALL
USER_CHARGES

@<TRIPOS>ATOM
      1 C1         -0.0187    1.5258    0.0104 C.3       1 <0>        -0.1775
      2 C2          0.0021   -0.0041    0.0020 C.3       1 <0>         0.1171
      3 H1         -1.0205   -0.3814    0.0098 H         1 <0>         0.1537
      4 C3          0.7309   -0.5033    1.2229 C.2       1 <0>        -0.0084
      5 C4          0.1264   -1.3835    2.0643 C.2       1 <0>        -0.1742
      6 S1          1.4145   -1.6119    3.2839 S.3       1 <0>         0.1041
      7 C5          2.6141   -0.5131    2.5419 C.2       1 <0>         0.1772
      8 N1          1.9523   -0.0933    1.4727 N.2       1 <0>        -0.5106
      9 C6          3.9788   -0.1695    2.9956 C.ar      1 <0>        -0.0264
     10 C7          4.7560    0.7276    2.2617 C.ar      1 <0>        -0.0590
     11 C8          6.0283    1.0445    2.6903 C.ar      1 <0>        -0.0915
     12 C9          6.5346    0.4743    3.8458 C.ar      1 <0>        -0.0635
     13 C10         5.7685   -0.4166    4.5779 C.ar      1 <0>        -0.0859
     14 C11         4.4925   -0.7366    4.1627 C.ar      1 <0>        -0.0782
     15 Br1         8.2799    0.9137    4.4261 Br        1 <0>        -0.0222
     16 N2          0.6897   -0.4778   -1.2066 N.4       1 <0>        -0.6341
     17 H2          1.0039    1.9031    0.0027 H         1 <0>         0.0899
     18 H3         -0.5459    1.8868   -0.8726 H         1 <0>         0.0868
     19 H4         -0.5289    1.8773    0.9072 H         1 <0>         0.1039
     20 H5         -0.8589   -1.8226    2.0113 H         1 <0>         0.2116
     21 H6          4.3623    1.1724    1.3597 H         1 <0>         0.1430
     22 H7          6.6307    1.7386    2.1231 H         1 <0>         0.1467
     23 H8          6.1691   -0.8588    5.4781 H         1 <0>         0.1486
     24 H9          3.8940   -1.4281    4.7372 H         1 <0>         0.1383
     25 H10         1.6363   -0.1286   -1.2138 H         1 <0>         0.4380
     26 H11         0.7033   -1.4867   -1.2121 H         1 <0>         0.4348
     27 H12         0.2017   -0.1436   -2.0240 H         1 <0>         0.4377
@<TRIPOS>BOND
     1    1    2 1
     2    1   17 1
     3    1   18 1
     4    1   19 1
     5    2    3 1
     6    2    4 1
     7    2   16 1
     8    4    8 1
     9    4    5 2
    10    5    6 1
    11    5   20 1
    12    6    7 1
    13    7    8 2
    14    7    9 1
    15    9   14 ar
    16    9   10 ar
    17   10   11 ar
    18   10   21 1
    19   11   12 ar
    20   11   22 1
    21   12   13 ar
    22   12   15 1
    23   13   14 ar
    24   13   23 1
    25   14   24 1
    26   16   25 1
    27   16   26 1
    28   16   27 1
@<TRIPOS>MOLECULE
ZINC70840409
   27    28     0     0     0
SMALL
USER_CHARGES

@<TRIPOS>ATOM
      1 C1         -0.0187    1.5258    0.0104 C.3       1 <0>        -0.1751
      2 C2          0.0021   -0.0041    0.0020 C.3       1 <0>         0.1094
      3 H1          0.5123   -0.3556   -0.8948 H         1 <0>         0.1581
      4 C3          0.7309   -0.5033    1.2229 C.2       1 <0>         0.0402
      5 C4          0.1264   -1.3835    2.0643 C.2       1 <0>        -0.2595
      6 S1          1.4145   -1.6119    3.2839 S.3       1 <0>         0.1110
      7 C5          2.6141   -0.5131    2.5419 C.2       1 <0>         0.1914
      8 N1          1.9523   -0.0933    1.4727 N.2       1 <0>        -0.4974
      9 C6          3.9788   -0.1695    2.9956 C.ar      1 <0>        -0.0308
     10 C7          4.7560    0.7276    2.2617 C.ar      1 <0>        -0.0540
     11 C8          6.0283    1.0445    2.6903 C.ar      1 <0>        -0.0916
     12 C9          6.5346    0.4743    3.8458 C.ar      1 <0>        -0.0613
     13 C10         5.7685   -0.4166    4.5779 C.ar      1 <0>        -0.0876
     14 C11         4.4925   -0.7366    4.1627 C.ar      1 <0>        -0.0767
     15 Br1         8.2799    0.9137    4.4261 Br        1 <0>        -0.0221
     16 N2         -1.3761   -0.5125    0.0124 N.4       1 <0>        -0.6350
     17 H2          1.0039    1.9031    0.0027 H         1 <0>         0.1151
     18 H3         -0.5459    1.8868   -0.8726 H         1 <0>         0.0886
     19 H4         -0.5289    1.8773    0.9072 H         1 <0>         0.0808
     20 H5         -0.8589   -1.8226    2.0113 H         1 <0>         0.1991
     21 H6          4.3623    1.1724    1.3597 H         1 <0>         0.1462
     22 H7          6.6307    1.7386    2.1231 H         1 <0>         0.1479
     23 H8          6.1691   -0.8588    5.4781 H         1 <0>         0.1489
     24 H9          3.8940   -1.4281    4.7372 H         1 <0>         0.1380
     25 H10        -1.8484   -0.1871    0.8426 H         1 <0>         0.4351
     26 H11        -1.8641   -0.1783   -0.8050 H         1 <0>         0.4443
     27 H12        -1.3624   -1.5214    0.0069 H         1 <0>         0.4368
@<TRIPOS>BOND
     1    1    2 1
     2    1   17 1
     3    1   18 1
     4    1   19 1
     5    2    3 1
     6    2    4 1
     7    2   16 1
     8    4    8 1
     9    4    5 2
    10    5    6 1
    11    5   20 1
    12    6    7 1
    13    7    8 2
    14    7    9 1
    15    9   14 ar
    16    9   10 ar
    17   10   11 ar
    18   10   21 1
    19   11   12 ar
    20   11   22 1
    21   12   13 ar
    22   12   15 1
    23   13   14 ar
    24   13   23 1
    25   14   24 1
    26   16   25 1
    27   16   26 1
    28   16   27 1
@<TRIPOS>MOLECULE
ZINC41010051
   39    40     0     0     0
SMALL
USER_CHARGES

@<TRIPOS>ATOM
      1 C1         -0.0187    1.5258    0.0104 C.3       1 <0>        -0.1564
      2 C2          0.0021   -0.0041    0.0020 C.3       1 <0>        -0.1516
      3 C3         -1.4333   -0.5336    0.0129 C.3       1 <0>        -0.0102
      4 N1         -1.4134   -2.0025    0.0048 N.4       1 <0>        -0.5084
      5 C4         -2.7915   -2.5110    0.0152 C.3       1 <0>         0.0783
      6 C5         -2.7711   -4.0178    0.0069 C.2       1 <0>        -0.0079
      7 C6         -2.8583   -4.7064    1.1760 C.2       1 <0>        -0.1861
      8 S1         -2.7866   -6.3890    0.5739 S.3       1 <0>         0.0884
      9 C7         -2.6487   -5.9924   -1.1641 C.2       1 <0>         0.1914
     10 N2         -2.6745   -4.6675   -1.1290 N.2       1 <0>        -0.5117
     11 C8         -2.5406   -6.8985   -2.3277 C.ar      1 <0>        -0.0475
     12 C9         -2.4351   -6.3741   -3.6168 C.ar      1 <0>        -0.0638
     13 C10        -2.3346   -7.2248   -4.6981 C.ar      1 <0>        -0.1189
     14 C11        -2.3381   -8.5952   -4.5068 C.ar      1 <0>        -0.0469
     15 C12        -2.4429   -9.1213   -3.2317 C.ar      1 <0>        -0.0817
     16 C13        -2.5378   -8.2812   -2.1411 C.ar      1 <0>        -0.0802
     17 C14        -2.4470  -10.6151   -3.0327 C.3       1 <0>        -0.1247
     18 C15        -2.2280   -9.5186   -5.6926 C.3       1 <0>        -0.1302
     19 H1          1.0039    1.9031    0.0027 H         1 <0>         0.0776
     20 H2         -0.5459    1.8868   -0.8726 H         1 <0>         0.0676
     21 H3         -0.5289    1.8773    0.9072 H         1 <0>         0.0674
     22 H4          0.5123   -0.3556   -0.8948 H         1 <0>         0.0863
     23 H5          0.5293   -0.3651    0.8851 H         1 <0>         0.0861
     24 H6         -1.9435   -0.1821    0.9097 H         1 <0>         0.1330
     25 H7         -1.9605   -0.1726   -0.8702 H         1 <0>         0.1331
     26 H8         -0.9411   -2.3279   -0.8254 H         1 <0>         0.4311
     27 H9         -3.3017   -2.1594    0.9120 H         1 <0>         0.1454
     28 H10        -3.3187   -2.1499   -0.8678 H         1 <0>         0.1447
     29 H11        -2.9462   -4.3392    2.1878 H         1 <0>         0.2095
     30 H12        -2.4325   -5.3047   -3.7675 H         1 <0>         0.1340
     31 H13        -2.2532   -6.8203   -5.6962 H         1 <0>         0.1361
     32 H14        -2.6146   -8.6932   -1.1457 H         1 <0>         0.1282
     33 H15        -1.4241  -10.9664   -2.8970 H         1 <0>         0.0784
     34 H16        -3.0362  -10.8624   -2.1497 H         1 <0>         0.0709
     35 H17        -2.8835  -11.0970   -3.9075 H         1 <0>         0.0788
     36 H18        -1.1775   -9.7316   -5.8909 H         1 <0>         0.0814
     37 H19        -2.7534  -10.4493   -5.4785 H         1 <0>         0.0787
     38 H20        -2.6733   -9.0427   -6.5663 H         1 <0>         0.0740
     39 H21        -0.9254   -2.3367    0.8222 H         1 <0>         0.4260
@<TRIPOS>BOND
     1    1    2 1
     2    1   19 1
     3    1   20 1
     4    1   21 1
     5    2    3 1
     6    2   22 1
     7    2   23 1
     8    3    4 1
     9    3   24 1
    10    3   25 1
    11    4    5 1
    12    4   26 1
    13    4   39 1
    14    5    6 1
    15    5   27 1
    16    5   28 1
    17    6   10 1
    18    6    7 2
    19    7    8 1
    20    7   29 1
    21    8    9 1
    22    9   10 2
    23    9   11 1
    24   11   16 ar
    25   11   12 ar
    26   12   13 ar
    27   12   30 1
    28   13   14 ar
    29   13   31 1
    30   14   15 ar
    31   14   18 1
    32   15   16 ar
    33   15   17 1
    34   16   32 1
    35   17   33 1
    36   17   34 1
    37   17   35 1
    38   18   36 1
    39   18   37 1
    40   18   38 1
@<TRIPOS>MOLECULE
ZINC40419264
   31    32     0     0     0
SMALL
USER_CHARGES

@<TRIPOS>ATOM
      1 C1         -0.0178    1.4648    0.0101 C.3       1 <0>        -0.0467
      2 N1          0.0021   -0.0041    0.0020 N.4       1 <0>        -0.5084
      3 C2          0.6897   -0.4778   -1.2066 C.3       1 <0>         0.0768
      4 C3          0.7101   -1.9847   -1.2149 C.2       1 <0>        -0.0071
      5 C4         -0.2477   -2.6746   -1.8884 C.2       1 <0>        -0.1879
      6 S1          0.2638   -4.3564   -1.5592 S.3       1 <0>         0.0817
      7 C5          1.6940   -3.9581   -0.5628 C.2       1 <0>         0.1988
      8 N2          1.6562   -2.6328   -0.5760 N.2       1 <0>        -0.5162
      9 C6          2.6612   -4.8626    0.0940 C.ar      1 <0>        -0.0874
     10 C7          3.7167   -4.3356    0.8403 C.ar      1 <0>        -0.0199
     11 C8          4.6162   -5.1824    1.4517 C.ar      1 <0>        -0.1555
     12 C9          4.4738   -6.5580    1.3256 C.ar      1 <0>         0.1693
     13 C10         3.4254   -7.0861    0.5836 C.ar      1 <0>        -0.2081
     14 C11         2.5181   -6.2461   -0.0257 C.ar      1 <0>        -0.0377
     15 O1          5.3627   -7.3893    1.9293 O.3       1 <0>        -0.3071
     16 C12         5.1572   -8.7932    1.7586 C.3       1 <0>         0.0205
     17 H1          1.0047    1.8421    0.0024 H         1 <0>         0.1251
     18 H2         -0.5450    1.8259   -0.8730 H         1 <0>         0.1248
     19 H3         -0.5280    1.8163    0.9069 H         1 <0>         0.1274
     20 H4          0.4901   -0.3383    0.8195 H         1 <0>         0.4332
     21 H5          0.1625   -0.1167   -2.0897 H         1 <0>         0.1451
     22 H6          1.7123   -0.1005   -1.2143 H         1 <0>         0.1447
     23 H7         -1.0856   -2.3086   -2.4632 H         1 <0>         0.2088
     24 H8          3.8285   -3.2659    0.9383 H         1 <0>         0.1421
     25 H9          5.4330   -4.7755    2.0293 H         1 <0>         0.1454
     26 H10         3.3182   -8.1565    0.4875 H         1 <0>         0.1435
     27 H11         1.7003   -6.6576   -0.5985 H         1 <0>         0.1319
     28 H12         4.1810   -9.0686    2.1576 H         1 <0>         0.0623
     29 H13         5.1991   -9.0402    0.6978 H         1 <0>         0.0626
     30 H14         5.9349   -9.3415    2.2903 H         1 <0>         0.1096
     31 H15        -0.9445   -0.3533    0.0092 H         1 <0>         0.4283
@<TRIPOS>BOND
     1    1    2 1
     2    1   17 1
     3    1   18 1
     4    1   19 1
     5    2    3 1
     6    2   20 1
     7    2   31 1
     8    3    4 1
     9    3   21 1
    10    3   22 1
    11    4    8 1
    12    4    5 2
    13    5    6 1
    14    5   23 1
    15    6    7 1
    16    7    8 2
    17    7    9 1
    18    9   14 ar
    19    9   10 ar
    20   10   11 ar
    21   10   24 1
    22   11   12 ar
    23   11   25 1
    24   12   13 ar
    25   12   15 1
    26   13   14 ar
    27   13   26 1
    28   14   27 1
    29   15   16 1
    30   16   28 1
    31   16   29 1
    32   16   30 1
@<TRIPOS>MOLECULE
ZINC88832136
   34    36     0     0     0
SMALL
USER_CHARGES

@<TRIPOS>ATOM
      1 C1         -0.0166    1.3752    0.0096 C.ar      1 <0>        -0.1091
      2 C2          1.1704    2.0863    0.0021 C.ar      1 <0>        -0.0772
      3 C3          2.3826    1.4201   -0.0131 C.ar      1 <0>        -0.1675
      4 C4          2.4151    0.0406   -0.0213 C.ar      1 <0>        -0.0723
      5 C5          1.2218   -0.6823   -0.0138 C.ar      1 <0>         0.0019
      6 C6          0.0021   -0.0041    0.0020 C.ar      1 <0>        -0.0390
      7 C7          1.2492   -2.1608   -0.0225 C.2       1 <0>         0.1291
      8 N1          0.2402   -3.0170   -0.0230 N.2       1 <0>        -0.4742
      9 C8          0.4467   -4.3204   -0.0319 C.2       1 <0>         0.1027
     10 C9          1.7317   -4.7979   -0.0408 C.2       1 <0>        -0.1699
     11 S1          2.6540   -3.2659   -0.0431 S.3       1 <0>         0.0339
     12 C10        -0.7012   -5.2602   -0.0318 C.ar      1 <0>        -0.0245
     13 C11        -0.4785   -6.6362   -0.0349 C.ar      1 <0>        -0.0990
     14 C12        -1.5495   -7.5063   -0.0348 C.ar      1 <0>        -0.1027
     15 C13        -2.8429   -7.0158   -0.0316 C.ar      1 <0>        -0.0981
     16 C14        -3.0706   -5.6504   -0.0284 C.ar      1 <0>        -0.0369
     17 C15        -2.0056   -4.7705   -0.0227 C.ar      1 <0>        -0.0774
     18 Cl1        -4.6968   -5.0429   -0.0250 Cl        1 <0>        -0.0600
     19 C16         3.6705    2.2026   -0.0212 C.3       1 <0>         0.0485
     20 N2          4.1023    2.4494    1.3611 N.4       1 <0>        -0.6378
     21 H1         -0.9597    1.9012    0.0260 H         1 <0>         0.1462
     22 H2          1.1504    3.1661    0.0077 H         1 <0>         0.1393
     23 H3          3.3622   -0.4783   -0.0338 H         1 <0>         0.1363
     24 H4         -0.9251   -0.5579    0.0083 H         1 <0>         0.1483
     25 H5          2.0883   -5.8173   -0.0482 H         1 <0>         0.2091
     26 H6          0.5307   -7.0207   -0.0378 H         1 <0>         0.1321
     27 H7         -1.3776   -8.5726   -0.0376 H         1 <0>         0.1409
     28 H8         -3.6781   -7.7006   -0.0319 H         1 <0>         0.1395
     29 H9         -2.1837   -3.7053   -0.0157 H         1 <0>         0.1417
     30 H10         4.4382    1.6334   -0.5454 H         1 <0>         0.1419
     31 H11         3.5141    3.1546   -0.5284 H         1 <0>         0.1444
     32 H12         4.9646    2.9733    1.3557 H         1 <0>         0.4393
     33 H13         3.3916    2.9763    1.8464 H         1 <0>         0.4356
     34 H14         4.2471    1.5681    1.8306 H         1 <0>         0.4350
@<TRIPOS>BOND
     1    1    6 ar
     2    1    2 ar
     3    1   21 1
     4    2    3 ar
     5    2   22 1
     6    3    4 ar
     7    3   19 1
     8    4    5 ar
     9    4   23 1
    10    5    6 ar
    11    5    7 1
    12    6   24 1
    13    7   11 1
    14    7    8 2
    15    8    9 1
    16    9   10 2
    17    9   12 1
    18   10   11 1
    19   10   25 1
    20   12   17 ar
    21   12   13 ar
    22   13   14 ar
    23   13   26 1
    24   14   15 ar
    25   14   27 1
    26   15   16 ar
    27   15   28 1
    28   16   17 ar
    29   16   18 1
    30   17   29 1
    31   19   20 1
    32   19   30 1
    33   19   31 1
    34   20   32 1
    35   20   33 1
    36   20   34 1
@<TRIPOS>MOLECULE
ZINC00159228
   21    22     0     0     0
SMALL
USER_CHARGES

@<TRIPOS>ATOM
      1 C1         -0.0168    1.3914    0.0097 C.ar      1 <0>        -0.0784
      2 C2          1.1698    2.0945    0.0021 C.ar      1 <0>        -0.1076
      3 C3          2.3782    1.4185   -0.0130 C.ar      1 <0>        -0.0169
      4 C4          2.4033    0.0340   -0.0207 C.ar      1 <0>        -0.1098
      5 C5          1.2230   -0.6799   -0.0133 C.ar      1 <0>        -0.0560
      6 C6          0.0021   -0.0041    0.0020 C.ar      1 <0>        -0.0147
      7 C7         -1.2665   -0.7636    0.0105 C.2       1 <0>         0.1553
      8 N1         -1.4622   -2.0747    0.0109 N.2       1 <0>        -0.4835
      9 C8         -2.6721   -2.5830    0.0196 C.2       1 <0>         0.0399
     10 C9         -3.7531   -1.7588    0.0285 C.2       1 <0>        -0.1774
     11 S1         -2.9498   -0.1609    0.0311 S.3       1 <0>         0.0367
     12 C10        -2.8627   -4.0779    0.0193 C.3       1 <0>         0.0355
     13 Cl1        -2.9263   -4.6761    1.7190 Cl        1 <0>        -0.1651
     14 Cl2         3.8677    2.3102   -0.0230 Cl        1 <0>        -0.0579
     15 H1         -0.9587    1.9196    0.0260 H         1 <0>         0.1374
     16 H2          1.1564    3.1744    0.0077 H         1 <0>         0.1442
     17 H3          3.3487   -0.4878   -0.0329 H         1 <0>         0.1440
     18 H4          1.2437   -1.7596   -0.0196 H         1 <0>         0.1466
     19 H5         -4.8055   -2.0017    0.0363 H         1 <0>         0.2049
     20 H6         -3.7952   -4.3252   -0.4880 H         1 <0>         0.1120
     21 H7         -2.0296   -4.5503   -0.5012 H         1 <0>         0.1106
@<TRIPOS>BOND
     1    1    6 ar
     2    1    2 ar
     3    1   15 1
     4    2    3 ar
     5    2   16 1
     6    3    4 ar
     7    3   14 1
     8    4    5 ar
     9    4   17 1
    10    5    6 ar
    11    5   18 1
    12    6    7 1
    13    7   11 1
    14    7    8 2
    15    8    9 1
    16    9   10 2
    17    9   12 1
    18   10   11 1
    19   10   19 1
    20   12   13 1
    21   12   20 1
    22   12   21 1
@<TRIPOS>MOLECULE
ZINC40999611
   33    34     0     0     0
SMALL
USER_CHARGES

@<TRIPOS>ATOM
      1 C1          0.3637    1.7937    1.4379 C.3       1 <0>        -0.1900
      2 C2          0.3251    0.2984    1.1165 C.3       1 <0>        -0.0094
      3 N1         -1.0701   -0.1318    0.9545 N.4       1 <0>        -0.5089
      4 C3         -1.1071   -1.5676    0.6459 C.3       1 <0>         0.0784
      5 C4         -2.5384   -2.0089    0.4797 C.2       1 <0>        -0.0143
      6 C5         -3.0944   -2.0643   -0.7597 C.2       1 <0>        -0.1818
      7 S1         -4.7422   -2.6310   -0.3571 S.3       1 <0>         0.0898
      8 C6         -4.5112   -2.7320    1.4130 C.2       1 <0>         0.1905
      9 N2         -3.2486   -2.3456    1.5306 N.2       1 <0>        -0.4995
     10 C7         -5.4688   -3.1416    2.4626 C.ar      1 <0>        -0.0486
     11 C8         -6.7685   -2.6328    2.4626 C.ar      1 <0>        -0.0786
     12 C9         -7.6570   -3.0188    3.4446 C.ar      1 <0>        -0.1223
     13 C10        -7.2623   -3.9084    4.4282 C.ar      1 <0>        -0.0799
     14 C11        -5.9755   -4.4160    4.4341 C.ar      1 <0>        -0.1211
     15 C12        -5.0788   -4.0427    3.4539 C.ar      1 <0>        -0.0316
     16 C13        -3.6794   -4.6019    3.4580 C.3       1 <0>        -0.1139
     17 H1          1.3989    2.1130    1.5581 H         1 <0>         0.1081
     18 H2         -0.0966    2.3525    0.6230 H         1 <0>         0.0804
     19 H3         -0.1839    1.9811    2.3616 H         1 <0>         0.0806
     20 H4          0.8727    0.1111    0.1928 H         1 <0>         0.1323
     21 H5          0.7854   -0.2604    1.9314 H         1 <0>         0.1324
     22 H6         -1.5769    0.0416    1.8096 H         1 <0>         0.4311
     23 H7         -0.5596   -1.7549   -0.2778 H         1 <0>         0.1450
     24 H8         -0.6468   -2.1264    1.4608 H         1 <0>         0.1444
     25 H9         -2.6612   -1.8304   -1.7210 H         1 <0>         0.2093
     26 H10        -7.0777   -1.9381    1.6957 H         1 <0>         0.1292
     27 H11        -8.6629   -2.6256    3.4460 H         1 <0>         0.1369
     28 H12        -7.9617   -4.2075    5.1948 H         1 <0>         0.1355
     29 H13        -5.6733   -5.1095    5.2050 H         1 <0>         0.1361
     30 H14        -3.0117   -3.9063    3.9664 H         1 <0>         0.0792
     31 H15        -3.6722   -5.5592    3.9791 H         1 <0>         0.0733
     32 H16        -3.3422   -4.7445    2.4313 H         1 <0>         0.0618
     33 H17        -1.4961    0.3854    0.2002 H         1 <0>         0.4258
@<TRIPOS>BOND
     1    1    2 1
     2    1   17 1
     3    1   18 1
     4    1   19 1
     5    2    3 1
     6    2   20 1
     7    2   21 1
     8    3    4 1
     9    3   22 1
    10    3   33 1
    11    4    5 1
    12    4   23 1
    13    4   24 1
    14    5    9 1
    15    5    6 2
    16    6    7 1
    17    6   25 1
    18    7    8 1
    19    8    9 2
    20    8   10 1
    21   10   15 ar
    22   10   11 ar
    23   11   12 ar
    24   11   26 1
    25   12   13 ar
    26   12   27 1
    27   13   14 ar
    28   13   28 1
    29   14   15 ar
    30   14   29 1
    31   15   16 1
    32   16   30 1
    33   16   31 1
    34   16   32 1
@<TRIPOS>MOLECULE
ZINC40999800
   28    29     0     0     0
SMALL
USER_CHARGES

@<TRIPOS>ATOM
      1 C1         -0.0169    1.3918    0.0097 C.ar      1 <0>        -0.0448
      2 C2          1.1684    2.0953    0.0022 C.ar      1 <0>        -0.1193
      3 C3          2.3804    1.4174   -0.0135 C.ar      1 <0>         0.1457
      4 C4          2.4034    0.0288   -0.0212 C.ar      1 <0>        -0.1944
      5 C5          1.2224   -0.6819   -0.0133 C.ar      1 <0>        -0.0187
      6 C6          0.0021   -0.0041    0.0020 C.ar      1 <0>        -0.0620
      7 C7         -1.2667   -0.7624    0.0105 C.2       1 <0>         0.1852
      8 N1         -1.4634   -2.0736    0.0109 N.2       1 <0>        -0.5094
      9 C8         -2.6743   -2.5808    0.0192 C.2       1 <0>        -0.0127
     10 C9         -3.7542   -1.7558    0.0277 C.2       1 <0>        -0.1821
     11 S1         -2.9495   -0.1586    0.0311 S.3       1 <0>         0.0995
     12 C10        -2.8664   -4.0755    0.0189 C.3       1 <0>         0.0793
     13 N2         -2.8186   -4.5750   -1.3618 N.4       1 <0>        -0.6350
     14 O1          3.5465    2.1143   -0.0218 O.3       1 <0>        -0.3051
     15 C11         4.7564    1.3543   -0.0379 C.3       1 <0>         0.6050
     16 F1          4.7889    0.5535   -1.1846 F         1 <0>        -0.1618
     17 F2          5.8529    2.2231   -0.0446 F         1 <0>        -0.1220
     18 F3          4.8121    0.5420    1.0998 F         1 <0>        -0.1611
     19 H1         -0.9589    1.9197    0.0260 H         1 <0>         0.1444
     20 H2          1.1546    3.1752    0.0081 H         1 <0>         0.1560
     21 H3          3.3478   -0.4948   -0.0337 H         1 <0>         0.1469
     22 H4          1.2411   -1.7617   -0.0196 H         1 <0>         0.1462
     23 H5         -4.8067   -1.9977    0.0347 H         1 <0>         0.2112
     24 H6         -2.0737   -4.5438    0.6023 H         1 <0>         0.1474
     25 H7         -3.8335   -4.3176    0.4596 H         1 <0>         0.1486
     26 H8         -2.9473   -5.5757   -1.3620 H         1 <0>         0.4406
     27 H9         -3.5524   -4.1414   -1.9019 H         1 <0>         0.4339
     28 H10        -1.9234   -4.3509   -1.7698 H         1 <0>         0.4384
@<TRIPOS>BOND
     1    1    6 ar
     2    1    2 ar
     3    1   19 1
     4    2    3 ar
     5    2   20 1
     6    3    4 ar
     7    3   14 1
     8    4    5 ar
     9    4   21 1
    10    5    6 ar
    11    5   22 1
    12    6    7 1
    13    7   11 1
    14    7    8 2
    15    8    9 1
    16    9   10 2
    17    9   12 1
    18   10   11 1
    19   10   23 1
    20   12   13 1
    21   12   24 1
    22   12   25 1
    23   13   26 1
    24   13   27 1
    25   13   28 1
    26   14   15 1
    27   15   16 1
    28   15   17 1
    29   15   18 1
@<TRIPOS>MOLECULE
ZINC94523930
   37    39     0     0     0
SMALL
USER_CHARGES

@<TRIPOS>ATOM
      1 C1         -0.0187    1.5258    0.0104 C.3       1 <0>        -0.1900
      2 C2          0.0021   -0.0041    0.0020 C.3       1 <0>        -0.0095
      3 N1          0.7126   -0.4907    1.1921 N.4       1 <0>        -0.5088
      4 C3          0.7325   -1.9595    1.1840 C.3       1 <0>         0.0781
      5 C4          1.4614   -2.4588    2.4049 C.2       1 <0>        -0.0081
      6 C5          0.7647   -2.8029    3.5207 C.2       1 <0>        -0.1858
      7 S1          2.0991   -3.3016    4.6020 S.3       1 <0>         0.0890
      8 C6          3.4352   -2.9982    3.4531 C.2       1 <0>         0.1903
      9 N2          2.7690   -2.5672    2.3912 N.2       1 <0>        -0.5116
     10 C7          4.8907   -3.1833    3.6364 C.ar      1 <0>        -0.0514
     11 C8          5.7723   -2.8761    2.5992 C.ar      1 <0>        -0.0565
     12 C9          7.1292   -3.0511    2.7766 C.ar      1 <0>        -0.1167
     13 C10         7.6165   -3.5306    3.9794 C.ar      1 <0>        -0.0086
     14 C11         6.7478   -3.8376    5.0115 C.ar      1 <0>        -0.1203
     15 C12         5.3891   -3.6607    4.8493 C.ar      1 <0>        -0.0762
     16 C13         9.0999   -3.7199    4.1660 C.3       1 <0>        -0.1362
     17 C14         9.5664   -4.4386    5.4335 C.3       1 <0>        -0.1721
     18 C15         9.7772   -2.9302    5.2878 C.3       1 <0>        -0.1623
     19 H1          1.0039    1.9031    0.0027 H         1 <0>         0.0806
     20 H2         -0.5459    1.8868   -0.8726 H         1 <0>         0.1081
     21 H3         -0.5289    1.8773    0.9072 H         1 <0>         0.0804
     22 H4         -1.0205   -0.3814    0.0098 H         1 <0>         0.1323
     23 H5          0.5123   -0.3556   -0.8948 H         1 <0>         0.1325
     24 H6          1.6592   -0.1414    1.1850 H         1 <0>         0.4310
     25 H7         -0.2901   -2.3368    1.1918 H         1 <0>         0.1453
     26 H8          1.2427   -2.3111    0.2873 H         1 <0>         0.1446
     27 H9         -0.2995   -2.7808    3.7034 H         1 <0>         0.2096
     28 H10         5.3931   -2.5024    1.6595 H         1 <0>         0.1355
     29 H11         7.8125   -2.8137    1.9746 H         1 <0>         0.1366
     30 H12         7.1344   -4.2118    5.9479 H         1 <0>         0.1381
     31 H13         4.7124   -3.8958    5.6575 H         1 <0>         0.1291
     32 H14         9.6709   -3.8875    3.2528 H         1 <0>         0.1203
     33 H15         8.8005   -4.7746    6.1325 H         1 <0>         0.1005
     34 H16        10.4446   -5.0794    5.3544 H         1 <0>         0.1043
     35 H17        10.7940   -2.5787    5.1129 H         1 <0>         0.1039
     36 H18         9.1499   -2.2738    5.8909 H         1 <0>         0.0980
     37 H19         0.2403   -0.1653    2.0223 H         1 <0>         0.4259
@<TRIPOS>BOND
     1    1    2 1
     2    1   19 1
     3    1   20 1
     4    1   21 1
     5    2    3 1
     6    2   22 1
     7    2   23 1
     8    3    4 1
     9    3   24 1
    10    3   37 1
    11    4    5 1
    12    4   25 1
    13    4   26 1
    14    5    9 1
    15    5    6 2
    16    6    7 1
    17    6   27 1
    18    7    8 1
    19    8    9 2
    20    8   10 1
    21   10   15 ar
    22   10   11 ar
    23   11   12 ar
    24   11   28 1
    25   12   13 ar
    26   12   29 1
    27   13   14 ar
    28   13   16 1
    29   14   15 ar
    30   14   30 1
    31   15   31 1
    32   16   18 1
    33   16   17 1
    34   16   32 1
    35   17   18 1
    36   17   33 1
    37   17   34 1
    38   18   35 1
    39   18   36 1
@<TRIPOS>MOLECULE
ZINC22332846
   42    43     0     0     0
SMALL
USER_CHARGES

@<TRIPOS>ATOM
      1 C1         -0.0388    1.8926   -0.5799 C.3       1 <0>        -0.1579
      2 C2         -0.1761    0.3761   -0.4307 C.3       1 <0>        -0.1196
      3 C3          0.6466   -0.3199   -1.5168 C.3       1 <0>        -0.1476
      4 C4          0.5092   -1.8364   -1.3676 C.3       1 <0>        -0.0116
      5 N1          1.2991   -2.5046   -2.4104 N.4       1 <0>        -0.3835
      6 C5          2.7253   -2.2211   -2.2015 C.3       1 <0>        -0.0161
      7 C6          3.5336   -2.7808   -3.3739 C.3       1 <0>        -0.1892
      8 C7          1.0730   -3.9545   -2.3425 C.3       1 <0>         0.0709
      9 C8         -0.3627   -4.2556   -2.6878 C.2       1 <0>        -0.0023
     10 C9         -0.7016   -4.5855   -3.9623 C.2       1 <0>        -0.1813
     11 S1         -2.4649   -4.8253   -3.7832 S.3       1 <0>         0.0975
     12 C10        -2.5577   -4.4610   -2.0352 C.2       1 <0>         0.1784
     13 N2         -1.2870   -4.2052   -1.7574 N.2       1 <0>        -0.5041
     14 C11        -3.7341   -4.4527   -1.1395 C.ar      1 <0>        -0.0372
     15 C12        -3.5848   -4.1299    0.2100 C.ar      1 <0>        -0.0515
     16 C13        -4.6859   -4.1233    1.0407 C.ar      1 <0>        -0.1111
     17 C14        -5.9376   -4.4366    0.5381 C.ar      1 <0>        -0.0063
     18 C15        -6.0919   -4.7581   -0.8000 C.ar      1 <0>        -0.1058
     19 C16        -4.9990   -4.7620   -1.6416 C.ar      1 <0>        -0.0713
     20 Cl1        -7.3188   -4.4268    1.5897 Cl        1 <0>        -0.0435
     21 H1          1.0093    2.1742   -0.4783 H         1 <0>         0.0590
     22 H2         -0.4028    2.1955   -1.5616 H         1 <0>         0.0584
     23 H3         -0.6249    2.3883    0.1939 H         1 <0>         0.0668
     24 H4          0.1879    0.0731    0.5510 H         1 <0>         0.0733
     25 H5         -1.2242    0.0944   -0.5323 H         1 <0>         0.0717
     26 H6          0.2825   -0.0169   -2.4985 H         1 <0>         0.0829
     27 H7          1.6947   -0.0383   -1.4152 H         1 <0>         0.0859
     28 H8          0.8733   -2.1393   -0.3859 H         1 <0>         0.1300
     29 H9         -0.5389   -2.1180   -1.4693 H         1 <0>         0.1346
     30 H10         2.8761   -1.1435   -2.1379 H         1 <0>         0.1340
     31 H11         3.0570   -2.6898   -1.2750 H         1 <0>         0.1309
     32 H12         4.5962   -2.6192   -3.1925 H         1 <0>         0.1075
     33 H13         3.3400   -3.8490   -3.4716 H         1 <0>         0.0795
     34 H14         3.2405   -2.2728   -4.2926 H         1 <0>         0.0810
     35 H15         1.7305   -4.4583   -3.0510 H         1 <0>         0.1456
     36 H16         1.2861   -4.3086   -1.3339 H         1 <0>         0.1430
     37 H17        -0.0788   -4.6771   -4.8398 H         1 <0>         0.2103
     38 H18        -2.6089   -3.8861    0.6033 H         1 <0>         0.1440
     39 H19        -4.5716   -3.8737    2.0852 H         1 <0>         0.1474
     40 H20        -7.0704   -5.0023   -1.1862 H         1 <0>         0.1491
     41 H21        -5.1212   -5.0082   -2.6860 H         1 <0>         0.1383
     42 H22         1.0175   -2.1623   -3.3169 H         1 <0>         0.4199
@<TRIPOS>BOND
     1    1    2 1
     2    1   21 1
     3    1   22 1
     4    1   23 1
     5    2    3 1
     6    2   24 1
     7    2   25 1
     8    3    4 1
     9    3   26 1
    10    3   27 1
    11    4    5 1
    12    4   28 1
    13    4   29 1
    14    5    6 1
    15    5    8 1
    16    5   42 1
    17    6    7 1
    18    6   30 1
    19    6   31 1
    20    7   32 1
    21    7   33 1
    22    7   34 1
    23    8    9 1
    24    8   35 1
    25    8   36 1
    26    9   13 1
    27    9   10 2
    28   10   11 1
    29   10   37 1
    30   11   12 1
    31   12   13 2
    32   12   14 1
    33   14   19 ar
    34   14   15 ar
    35   15   16 ar
    36   15   38 1
    37   16   17 ar
    38   16   39 1
    39   17   18 ar
    40   17   20 1
    41   18   19 ar
    42   18   40 1
    43   19   41 1
@<TRIPOS>MOLECULE
ZINC01391492
   24    25     0     0     0
SMALL
USER_CHARGES
2-(4-chlorophenyl)thiazole-4-carbohydrazide
@<TRIPOS>ATOM
      1 C1         -2.4437   -0.4771    0.0302 C.ar      1 <0>        -0.0586
      2 C2         -3.4977   -1.3670    0.0312 C.ar      1 <0>        -0.1092
      3 C3         -3.2561   -2.7304    0.0215 C.ar      1 <0>        -0.0176
      4 C4         -1.9567   -3.2087    0.0052 C.ar      1 <0>        -0.1060
      5 C5         -0.8949   -2.3282   -0.0013 C.ar      1 <0>        -0.0794
      6 C6         -1.1322   -0.9532    0.0085 C.ar      1 <0>        -0.0128
      7 C7          0.0021   -0.0041    0.0020 C.2       1 <0>         0.1302
      8 N1         -0.0158    1.3162    0.0093 N.2       1 <0>        -0.4717
      9 C8          1.1231    1.9926    0.0020 C.2       1 <0>         0.0002
     10 C9          2.3100    1.3028   -0.0130 C.2       1 <0>        -0.1530
     11 S1          1.7552   -0.3429   -0.0165 S.3       1 <0>         0.1214
     12 C10         1.1161    3.4657    0.0100 C.2       1 <0>         0.5916
     13 O1          2.1666    4.0788    0.0028 O.2       1 <0>        -0.5223
     14 N2         -0.0542    4.1340    0.0253 N.am      1 <0>        -0.5599
     15 N3         -0.0606    5.4999    0.0327 N.3       1 <0>        -0.6016
     16 Cl1        -4.5875   -3.8445    0.0302 Cl        1 <0>        -0.0572
     17 H1         -2.6331    0.5861    0.0423 H         1 <0>         0.1449
     18 H2         -4.5132   -0.9996    0.0442 H         1 <0>         0.1437
     19 H3         -1.7743   -4.2731   -0.0020 H         1 <0>         0.1447
     20 H4          0.1181   -2.7023   -0.0136 H         1 <0>         0.1383
     21 H5          3.3209    1.6829   -0.0206 H         1 <0>         0.2140
     22 H6         -0.8919    3.6450    0.0310 H         1 <0>         0.4108
     23 H7          0.4560    5.8682   -0.7519 H         1 <0>         0.3486
     24 H8         -1.0042    5.8570    0.0440 H         1 <0>         0.3609
@<TRIPOS>BOND
     1    1    6 ar
     2    1    2 ar
     3    1   17 1
     4    2    3 ar
     5    2   18 1
     6    3    4 ar
     7    3   16 1
     8    4    5 ar
     9    4   19 1
    10    5    6 ar
    11    5   20 1
    12    6    7 1
    13    7   11 1
    14    7    8 2
    15    8    9 1
    16    9   10 2
    17    9   12 1
    18   10   11 1
    19   10   21 1
    20   12   13 2
    21   12   14 am
    22   14   15 1
    23   14   22 1
    24   15   23 1
    25   15   24 1
@<TRIPOS>MOLECULE
ZINC40999680
   36    37     0     0     0
SMALL
USER_CHARGES

@<TRIPOS>ATOM
      1 C1         -0.0184    1.5028    0.0103 C.3       1 <0>        -0.1272
      2 C2          0.0021   -0.0041    0.0020 C.ar      1 <0>        -0.0805
      3 C3          0.0057   -0.6864   -1.2013 C.ar      1 <0>        -0.0882
      4 C4          0.0249   -2.0657   -1.2162 C.ar      1 <0>        -0.0893
      5 C5          0.0406   -2.7744   -0.0139 C.ar      1 <0>        -0.0196
      6 C6          0.0368   -2.0825    1.1974 C.ar      1 <0>        -0.0965
      7 C7          0.0229   -0.7004    1.1996 C.ar      1 <0>         0.0985
      8 F1          0.0248   -0.0277    2.3712 F         1 <0>        -0.1266
      9 C8          0.0606   -4.2530   -0.0241 C.2       1 <0>         0.1801
     10 N1          0.0719   -5.1013    0.9945 N.2       1 <0>        -0.5056
     11 C9          0.0895   -6.3989    0.8004 C.2       1 <0>        -0.0076
     12 C10         0.0966   -6.8946   -0.4656 C.2       1 <0>        -0.1819
     13 S1          0.0683   -5.3783   -1.4136 S.3       1 <0>         0.1037
     14 C11         0.1025   -7.3382    1.9788 C.3       1 <0>         0.0743
     15 N2          1.4849   -7.5298    2.4372 N.4       1 <0>        -0.5064
     16 C12         1.4975   -8.4454    3.5858 C.3       1 <0>         0.0239
     17 C13         1.0235   -9.8300    3.1396 C.3       1 <0>        -0.1856
     18 C14         2.9196   -8.5477    4.1409 C.3       1 <0>        -0.1843
     19 H1          1.0042    1.8801    0.0026 H         1 <0>         0.0854
     20 H2         -0.5455    1.8639   -0.8728 H         1 <0>         0.0820
     21 H3         -0.5286    1.8543    0.9071 H         1 <0>         0.0779
     22 H4         -0.0068   -0.1379   -2.1316 H         1 <0>         0.1490
     23 H5          0.0273   -2.5964   -2.1568 H         1 <0>         0.1365
     24 H6          0.0489   -2.6254    2.1310 H         1 <0>         0.1473
     25 H7          0.1105   -7.9198   -0.8048 H         1 <0>         0.2111
     26 H8         -0.4931   -6.9148    2.7876 H         1 <0>         0.1451
     27 H9         -0.3184   -8.2990    1.6823 H         1 <0>         0.1467
     28 H10         2.0362   -7.9218    1.6885 H         1 <0>         0.4240
     29 H11         0.8315   -8.0656    4.3606 H         1 <0>         0.1407
     30 H12         1.6896  -10.2099    2.3648 H         1 <0>         0.0823
     31 H13         1.0329  -10.5094    3.9919 H         1 <0>         0.1074
     32 H14         0.0104   -9.7572    2.7441 H         1 <0>         0.0814
     33 H15         3.2573   -7.5613    4.4589 H         1 <0>         0.0818
     34 H16         2.9290   -9.2271    4.9933 H         1 <0>         0.1080
     35 H17         3.5856   -8.9275    3.3662 H         1 <0>         0.0813
     36 H18         1.8745   -6.6405    2.7117 H         1 <0>         0.4312
@<TRIPOS>BOND
     1    1    2 1
     2    1   19 1
     3    1   20 1
     4    1   21 1
     5    2    7 ar
     6    2    3 ar
     7    3    4 ar
     8    3   22 1
     9    4    5 ar
    10    4   23 1
    11    5    6 ar
    12    5    9 1
    13    6    7 ar
    14    6   24 1
    15    7    8 1
    16    9   13 1
    17    9   10 2
    18   10   11 1
    19   11   12 2
    20   11   14 1
    21   12   13 1
    22   12   25 1
    23   14   15 1
    24   14   26 1
    25   14   27 1
    26   15   16 1
    27   15   28 1
    28   15   36 1
    29   16   17 1
    30   16   18 1
    31   16   29 1
    32   17   30 1
    33   17   31 1
    34   17   32 1
    35   18   33 1
    36   18   34 1
    37   18   35 1
@<TRIPOS>MOLECULE
ZINC43388152
   33    34     0     0     0
SMALL
USER_CHARGES

@<TRIPOS>ATOM
      1 C1         -0.0187    1.5258    0.0104 C.3       1 <0>        -0.1858
      2 C2          0.0021   -0.0041    0.0020 C.3       1 <0>         0.0240
      3 C3          0.7182   -0.4975   -1.2568 C.3       1 <0>        -0.1844
      4 N1          0.7126   -0.4907    1.1921 N.4       1 <0>        -0.5067
      5 C4         -0.0398   -0.1189    2.3978 C.3       1 <0>         0.0743
      6 C5          0.6890   -0.6181    3.6187 C.2       1 <0>        -0.0103
      7 C6          1.5342    0.2070    4.2920 C.2       1 <0>        -0.1748
      8 S1          2.0887   -0.8826    5.5973 S.3       1 <0>         0.1181
      9 C7          1.1368   -2.3139    5.1050 C.2       1 <0>         0.1670
     10 N2          0.5049   -1.8482    4.0369 N.2       1 <0>        -0.4957
     11 C8          1.0688   -3.6545    5.7255 C.ar      1 <0>         0.0240
     12 C9          0.2557   -4.6427    5.1697 C.ar      1 <0>        -0.1151
     13 C10         0.1961   -5.8941    5.7533 C.ar      1 <0>         0.1396
     14 C11         0.9415   -6.1679    6.8884 C.ar      1 <0>        -0.1626
     15 C12         1.7501   -5.1902    7.4446 C.ar      1 <0>         0.1455
     16 C13         1.8218   -3.9374    6.8654 C.ar      1 <0>        -0.1367
     17 F1          2.4742   -5.4636    8.5519 F         1 <0>        -0.1160
     18 F2         -0.5909   -6.8519    5.2161 F         1 <0>        -0.1179
     19 H1          1.0039    1.9031    0.0027 H         1 <0>         0.0824
     20 H2         -0.5459    1.8868   -0.8726 H         1 <0>         0.1075
     21 H3         -0.5289    1.8773    0.9072 H         1 <0>         0.0815
     22 H4         -1.0205   -0.3814    0.0098 H         1 <0>         0.1409
     23 H5          1.7408   -0.1202   -1.2645 H         1 <0>         0.0814
     24 H6          0.7330   -1.5874   -1.2628 H         1 <0>         0.0820
     25 H7          0.1910   -0.1364   -2.1398 H         1 <0>         0.1081
     26 H8          0.7982   -1.4950    1.1455 H         1 <0>         0.4313
     27 H9         -0.1324    0.9660    2.4481 H         1 <0>         0.1475
     28 H10        -1.0328   -0.5668    2.3589 H         1 <0>         0.1461
     29 H11         1.7980    1.2353    4.0934 H         1 <0>         0.2132
     30 H12        -0.3264   -4.4300    4.2851 H         1 <0>         0.1553
     31 H13         0.8918   -7.1469    7.3415 H         1 <0>         0.1626
     32 H14         2.4563   -3.1774    7.2970 H         1 <0>         0.1494
     33 H15         1.6317   -0.0761    1.2281 H         1 <0>         0.4242
@<TRIPOS>BOND
     1    1    2 1
     2    1   19 1
     3    1   20 1
     4    1   21 1
     5    2    3 1
     6    2    4 1
     7    2   22 1
     8    3   23 1
     9    3   24 1
    10    3   25 1
    11    4    5 1
    12    4   26 1
    13    4   33 1
    14    5    6 1
    15    5   27 1
    16    5   28 1
    17    6   10 1
    18    6    7 2
    19    7    8 1
    20    7   29 1
    21    8    9 1
    22    9   10 2
    23    9   11 1
    24   11   16 ar
    25   11   12 ar
    26   12   13 ar
    27   12   30 1
    28   13   14 ar
    29   13   18 1
    30   14   15 ar
    31   14   31 1
    32   15   16 ar
    33   15   17 1
    34   16   32 1
@<TRIPOS>MOLECULE
ZINC35163446
   36    37     0     0     0
SMALL
USER_CHARGES

@<TRIPOS>ATOM
      1 C1         -0.0187    1.5258    0.0104 C.3       1 <0>        -0.1596
      2 C2          0.0021   -0.0041    0.0020 C.3       1 <0>        -0.1212
      3 C3          0.7182   -0.4975   -1.2568 C.3       1 <0>        -0.1505
      4 C4          0.7390   -2.0273   -1.2652 C.3       1 <0>        -0.0097
      5 N1          1.4265   -2.5011   -2.4738 N.4       1 <0>        -0.5084
      6 C5          1.4465   -3.9699   -2.4819 C.3       1 <0>         0.0780
      7 C6          2.1518   -4.4559   -3.7218 C.2       1 <0>        -0.0088
      8 C7          3.4743   -4.7667   -3.6750 C.2       1 <0>        -0.1816
      9 S1          3.7563   -5.2652   -5.3693 S.3       1 <0>         0.0969
     10 C8          2.0864   -5.0059   -5.9533 C.2       1 <0>         0.1840
     11 N2          1.4890   -4.5849   -4.8473 N.2       1 <0>        -0.5079
     12 C9          1.5224   -5.2110   -7.3046 C.ar      1 <0>        -0.0549
     13 C10         0.1760   -4.9381   -7.5503 C.ar      1 <0>        -0.0331
     14 C11        -0.3451   -5.1312   -8.8125 C.ar      1 <0>        -0.1555
     15 C12         0.4658   -5.5957   -9.8359 C.ar      1 <0>         0.1392
     16 C13         1.8035   -5.8683   -9.5973 C.ar      1 <0>        -0.1499
     17 C14         2.3361   -5.6727   -8.3403 C.ar      1 <0>        -0.0533
     18 F1         -0.0498   -5.7840  -11.0704 F         1 <0>        -0.1240
     19 H1          1.0039    1.9031    0.0027 H         1 <0>         0.0592
     20 H2         -0.5459    1.8868   -0.8726 H         1 <0>         0.0594
     21 H3         -0.5289    1.8773    0.9072 H         1 <0>         0.0672
     22 H4          0.5293   -0.3651    0.8851 H         1 <0>         0.0737
     23 H5         -1.0205   -0.3814    0.0098 H         1 <0>         0.0739
     24 H6          0.1910   -0.1364   -2.1398 H         1 <0>         0.0870
     25 H7          1.7408   -0.1202   -1.2645 H         1 <0>         0.0869
     26 H8          1.2661   -2.3884   -0.3821 H         1 <0>         0.1333
     27 H9         -0.2836   -2.4046   -1.2575 H         1 <0>         0.1334
     28 H10         0.9385   -2.1668   -3.2913 H         1 <0>         0.4311
     29 H11         1.9737   -4.3310   -1.5988 H         1 <0>         0.1460
     30 H12         0.4239   -4.3472   -2.4742 H         1 <0>         0.1453
     31 H13         4.1638   -4.7241   -2.8448 H         1 <0>         0.2107
     32 H14        -0.4569   -4.5767   -6.7532 H         1 <0>         0.1453
     33 H15        -1.3869   -4.9203   -9.0037 H         1 <0>         0.1502
     34 H16         2.4311   -6.2301  -10.3983 H         1 <0>         0.1520
     35 H17         3.3798   -5.8808   -8.1566 H         1 <0>         0.1394
     36 H18         2.3732   -2.1518   -2.4810 H         1 <0>         0.4262
@<TRIPOS>BOND
     1    1    2 1
     2    1   19 1
     3    1   20 1
     4    1   21 1
     5    2    3 1
     6    2   22 1
     7    2   23 1
     8    3    4 1
     9    3   24 1
    10    3   25 1
    11    4    5 1
    12    4   26 1
    13    4   27 1
    14    5    6 1
    15    5   28 1
    16    5   36 1
    17    6    7 1
    18    6   29 1
    19    6   30 1
    20    7   11 1
    21    7    8 2
    22    8    9 1
    23    8   31 1
    24    9   10 1
    25   10   11 2
    26   10   12 1
    27   12   17 ar
    28   12   13 ar
    29   13   14 ar
    30   13   32 1
    31   14   15 ar
    32   14   33 1
    33   15   16 ar
    34   15   18 1
    35   16   17 ar
    36   16   34 1
    37   17   35 1
@<TRIPOS>MOLECULE
ZINC70848948
   23    24     0     0     0
SMALL
USER_CHARGES

@<TRIPOS>ATOM
      1 C1         -0.0184    1.5028    0.0103 C.3       1 <0>        -0.1852
      2 C2          0.0021   -0.0041    0.0020 C.2       1 <0>         0.4282
      3 O1          1.0611   -0.5965   -0.0113 O.2       1 <0>        -0.4529
      4 C3         -1.2563   -0.7536    0.0100 C.2       1 <0>        -0.0463
      5 C4         -1.2541   -2.1377    0.0079 C.2       1 <0>        -0.1974
      6 S1         -2.8971   -2.5024    0.0199 S.3       1 <0>         0.1925
      7 C5         -3.5309   -0.8351    0.0273 C.2       1 <0>         0.0944
      8 N1         -2.4229   -0.1194    0.0250 N.2       1 <0>        -0.4346
      9 C6         -4.9362   -0.3740    0.0384 C.ar      1 <0>         0.0058
     10 C7         -5.2254    0.9912    0.0364 C.ar      1 <0>        -0.0568
     11 C8         -6.5376    1.4161    0.0464 C.ar      1 <0>        -0.0947
     12 C9         -7.5678    0.4910    0.0587 C.ar      1 <0>        -0.0173
     13 C10        -7.2874   -0.8659    0.0612 C.ar      1 <0>        -0.0290
     14 C11        -5.9775   -1.3024    0.0451 C.ar      1 <0>        -0.0779
     15 Cl1        -8.5850   -2.0191    0.0773 Cl        1 <0>        -0.0345
     16 Cl2        -9.2169    1.0333    0.0717 Cl        1 <0>        -0.0360
     17 H1          1.0042    1.8801    0.0026 H         1 <0>         0.0836
     18 H2         -0.5455    1.8639   -0.8728 H         1 <0>         0.0960
     19 H3         -0.5286    1.8543    0.9071 H         1 <0>         0.0960
     20 H4         -0.4113   -2.8129   -0.0001 H         1 <0>         0.2115
     21 H5         -4.4229    1.7140    0.0275 H         1 <0>         0.1533
     22 H6         -6.7620    2.4725    0.0448 H         1 <0>         0.1537
     23 H7         -5.7595   -2.3601    0.0425 H         1 <0>         0.1473
@<TRIPOS>BOND
     1    1    2 1
     2    1   17 1
     3    1   18 1
     4    1   19 1
     5    2    3 2
     6    2    4 1
     7    4    8 1
     8    4    5 2
     9    5    6 1
    10    5   20 1
    11    6    7 1
    12    7    8 2
    13    7    9 1
    14    9   14 ar
    15    9   10 ar
    16   10   11 ar
    17   10   21 1
    18   11   12 ar
    19   11   22 1
    20   12   13 ar
    21   12   16 1
    22   13   14 ar
    23   13   15 1
    24   14   23 1
@<TRIPOS>MOLECULE
ZINC88870646
   34    36     0     0     0
SMALL
USER_CHARGES

@<TRIPOS>ATOM
      1 C1         -0.0167    1.3793    0.0096 C.ar      1 <0>        -0.0856
      2 C2          1.1669    2.0883    0.0021 C.ar      1 <0>        -0.0942
      3 C3          2.3846    1.4070   -0.0132 C.ar      1 <0>         0.0352
      4 C4          2.3966    0.0116   -0.0208 C.ar      1 <0>        -0.0731
      5 C5          1.2061   -0.6855   -0.0132 C.ar      1 <0>        -0.0876
      6 C6          0.0021   -0.0041    0.0020 C.ar      1 <0>        -0.1617
      7 C7         -1.2946   -0.7720    0.0103 C.3       1 <0>         0.0468
      8 N1         -1.7291   -1.0141   -1.3719 N.4       1 <0>        -0.6374
      9 C8          3.6570    2.1605   -0.0218 C.2       1 <0>         0.1183
     10 N2          4.8997    1.7056   -0.0416 N.2       1 <0>        -0.4733
     11 C9          5.9311    2.5285   -0.0473 C.2       1 <0>         0.0988
     12 C10         5.7125    3.8816   -0.0323 C.2       1 <0>        -0.1698
     13 S1          3.9250    3.9279   -0.0160 S.3       1 <0>         0.0608
     14 C11         7.3150    1.9940   -0.0691 C.ar      1 <0>        -0.0323
     15 C12         8.4015    2.8671   -0.0686 C.ar      1 <0>        -0.0692
     16 C13         9.6870    2.3662   -0.0885 C.ar      1 <0>        -0.1373
     17 C14         9.8994    0.9975   -0.1094 C.ar      1 <0>         0.1226
     18 C15         8.8222    0.1249   -0.1104 C.ar      1 <0>        -0.0774
     19 C16         7.5322    0.6178   -0.0844 C.ar      1 <0>        -0.0499
     20 Cl1         9.0950   -1.5893   -0.1378 Cl        1 <0>        -0.0396
     21 F1         11.1598    0.5116   -0.1293 F         1 <0>        -0.1194
     22 H1         -0.9598    1.9053    0.0260 H         1 <0>         0.1415
     23 H2          1.1509    3.1681    0.0077 H         1 <0>         0.1403
     24 H3          3.3358   -0.5215   -0.0330 H         1 <0>         0.1485
     25 H4          1.2139   -1.7655   -0.0191 H         1 <0>         0.1412
     26 H5         -1.1488   -1.7257    0.5176 H         1 <0>         0.1425
     27 H6         -2.0557   -0.1942    0.5345 H         1 <0>         0.1424
     28 H7         -2.5973   -1.5283   -1.3664 H         1 <0>         0.4390
     29 H8         -1.8640   -0.1313   -1.8416 H         1 <0>         0.4351
     30 H9          6.4232    4.6949   -0.0339 H         1 <0>         0.2104
     31 H10         8.2373    3.9344   -0.0531 H         1 <0>         0.1436
     32 H11        10.5291    3.0424   -0.0882 H         1 <0>         0.1543
     33 H12         6.6933   -0.0624   -0.0803 H         1 <0>         0.1512
     34 H13        -1.0245   -1.5490   -1.8572 H         1 <0>         0.4354
@<TRIPOS>BOND
     1    1    6 ar
     2    1    2 ar
     3    1   22 1
     4    2    3 ar
     5    2   23 1
     6    3    4 ar
     7    3    9 1
     8    4    5 ar
     9    4   24 1
    10    5    6 ar
    11    5   25 1
    12    6    7 1
    13    7    8 1
    14    7   26 1
    15    7   27 1
    16    8   28 1
    17    8   29 1
    18    8   34 1
    19    9   13 1
    20    9   10 2
    21   10   11 1
    22   11   12 2
    23   11   14 1
    24   12   13 1
    25   12   30 1
    26   14   19 ar
    27   14   15 ar
    28   15   16 ar
    29   15   31 1
    30   16   17 ar
    31   16   32 1
    32   17   18 ar
    33   17   21 1
    34   18   19 ar
    35   18   20 1
    36   19   33 1
@<TRIPOS>MOLECULE
ZINC35163506
   31    32     0     0     0
SMALL
USER_CHARGES

@<TRIPOS>ATOM
      1 C1         -0.0169    1.3914    0.0097 C.ar      1 <0>        -0.0531
      2 C2          1.1695    2.0947    0.0021 C.ar      1 <0>        -0.1502
      3 C3          2.3789    1.4182   -0.0135 C.ar      1 <0>         0.1398
      4 C4          2.4033    0.0326   -0.0212 C.ar      1 <0>        -0.1558
      5 C5          1.2228   -0.6804   -0.0137 C.ar      1 <0>        -0.0326
      6 C6          0.0021   -0.0041    0.0020 C.ar      1 <0>        -0.0559
      7 C7         -1.2666   -0.7632    0.0105 C.2       1 <0>         0.1852
      8 N1         -1.4625   -2.0744    0.0109 N.2       1 <0>        -0.5082
      9 C8         -2.6728   -2.5824    0.0199 C.2       1 <0>        -0.0100
     10 C9         -3.7535   -1.7580    0.0291 C.2       1 <0>        -0.1810
     11 S1         -2.9497   -0.1603    0.0311 S.3       1 <0>         0.0990
     12 C10        -2.8638   -4.0772    0.0196 C.3       1 <0>         0.0789
     13 N2         -2.8166   -4.5766   -1.3611 N.4       1 <0>        -0.5069
     14 C11        -3.0028   -6.0337   -1.3614 C.3       1 <0>        -0.0054
     15 C12        -2.9536   -6.5538   -2.7995 C.3       1 <0>        -0.0411
     16 C13        -3.1403   -8.0140   -2.7998 C.1       1 <0>         0.1793
     17 N3         -3.2843   -9.1408   -2.8001 N.1       1 <0>        -0.3701
     18 F1          3.5381    2.1119   -0.0217 F         1 <0>        -0.1238
     19 H1         -0.9588    1.9196    0.0260 H         1 <0>         0.1394
     20 H2          1.1559    3.1746    0.0081 H         1 <0>         0.1519
     21 H3          3.3485   -0.4898   -0.0334 H         1 <0>         0.1503
     22 H4          1.2429   -1.7602   -0.0204 H         1 <0>         0.1457
     23 H5         -4.8058   -2.0005    0.0368 H         1 <0>         0.2113
     24 H6         -2.0705   -4.5450    0.6025 H         1 <0>         0.1481
     25 H7         -3.8305   -4.3200    0.4609 H         1 <0>         0.1488
     26 H8         -3.5510   -4.1435   -1.9007 H         1 <0>         0.4299
     27 H9         -2.2095   -6.5016   -0.7785 H         1 <0>         0.1443
     28 H10        -3.9695   -6.2766   -0.9201 H         1 <0>         0.1443
     29 H11        -3.7470   -6.0860   -3.3824 H         1 <0>         0.1316
     30 H12        -1.9870   -6.3110   -3.2408 H         1 <0>         0.1317
     31 H13        -1.9218   -4.3518   -1.7696 H         1 <0>         0.4347
@<TRIPOS>BOND
     1    1    6 ar
     2    1    2 ar
     3    1   19 1
     4    2    3 ar
     5    2   20 1
     6    3    4 ar
     7    3   18 1
     8    4    5 ar
     9    4   21 1
    10    5    6 ar
    11    5   22 1
    12    6    7 1
    13    7   11 1
    14    7    8 2
    15    8    9 1
    16    9   10 2
    17    9   12 1
    18   10   11 1
    19   10   23 1
    20   12   13 1
    21   12   24 1
    22   12   25 1
    23   13   14 1
    24   13   26 1
    25   13   31 1
    26   14   15 1
    27   14   27 1
    28   14   28 1
    29   15   16 1
    30   15   29 1
    31   15   30 1
    32   16   17 3
@<TRIPOS>MOLECULE
ZINC35163506
   30    31     0     0     0
SMALL
USER_CHARGES

@<TRIPOS>ATOM
      1 C1         -0.0169    1.3914    0.0097 C.ar      1 <0>        -0.0622
      2 C2          1.1695    2.0947    0.0021 C.ar      1 <0>        -0.1517
      3 C3          2.3789    1.4182   -0.0135 C.ar      1 <0>         0.1205
      4 C4          2.4033    0.0326   -0.0212 C.ar      1 <0>        -0.1539
      5 C5          1.2228   -0.6804   -0.0137 C.ar      1 <0>        -0.0385
      6 C6          0.0021   -0.0041    0.0020 C.ar      1 <0>        -0.0294
      7 C7         -1.2666   -0.7632    0.0105 C.2       1 <0>         0.1569
      8 N1         -1.4625   -2.0744    0.0109 N.2       1 <0>        -0.4771
      9 C8         -2.6728   -2.5824    0.0199 C.2       1 <0>         0.0645
     10 C9         -3.7535   -1.7580    0.0291 C.2       1 <0>        -0.1972
     11 S1         -2.9497   -0.1603    0.0311 S.3       1 <0>         0.0180
     12 C10        -2.8638   -4.0772    0.0196 C.3       1 <0>         0.1298
     13 N2         -2.8166   -4.5766   -1.3611 N.3       1 <0>        -0.6804
     14 C11        -2.9997   -6.0336   -1.4005 C.3       1 <0>         0.0634
     15 C12        -2.9445   -6.5155   -2.8516 C.3       1 <0>        -0.0240
     16 C13        -3.1280   -7.9755   -2.8911 C.1       1 <0>         0.2041
     17 N3         -3.2696   -9.1022   -2.9215 N.1       1 <0>        -0.4306
     18 F1          3.5381    2.1119   -0.0217 F         1 <0>        -0.1325
     19 H1         -0.9588    1.9196    0.0260 H         1 <0>         0.1375
     20 H2          1.1559    3.1746    0.0081 H         1 <0>         0.1455
     21 H3          3.3485   -0.4898   -0.0334 H         1 <0>         0.1456
     22 H4          1.2429   -1.7602   -0.0204 H         1 <0>         0.1481
     23 H5         -4.8058   -2.0005    0.0368 H         1 <0>         0.1991
     24 H6         -2.0705   -4.5450    0.6025 H         1 <0>         0.0928
     25 H7         -3.8305   -4.3200    0.4609 H         1 <0>         0.0519
     26 H8         -2.2073   -6.5150   -0.8274 H         1 <0>         0.0852
     27 H9         -3.9673   -6.2900   -0.9690 H         1 <0>         0.0420
     28 H10        -3.7370   -6.0341   -3.4247 H         1 <0>         0.1083
     29 H11        -1.9770   -6.2591   -3.2831 H         1 <0>         0.1195
     30 H12        -3.5008   -4.1104   -1.9378 H         1 <0>         0.3446
@<TRIPOS>BOND
     1    1    6 ar
     2    1    2 ar
     3    1   19 1
     4    2    3 ar
     5    2   20 1
     6    3    4 ar
     7    3   18 1
     8    4    5 ar
     9    4   21 1
    10    5    6 ar
    11    5   22 1
    12    6    7 1
    13    7   11 1
    14    7    8 2
    15    8    9 1
    16    9   10 2
    17    9   12 1
    18   10   11 1
    19   10   23 1
    20   12   13 1
    21   12   24 1
    22   12   25 1
    23   13   14 1
    24   13   30 1
    25   14   15 1
    26   14   26 1
    27   14   27 1
    28   15   16 1
    29   15   28 1
    30   15   29 1
    31   16   17 3
@<TRIPOS>MOLECULE
ZINC00111307
   31    33     0     0     0
SMALL
USER_CHARGES
2-(4-chlorophenyl)-4-(p-tolyl)thiazole
@<TRIPOS>ATOM
      1 C1         10.0741    2.9945   -0.0766 C.3       1 <0>        -0.1182
      2 C2          8.6841    2.4123   -0.0665 C.ar      1 <0>        -0.0771
      3 C3          7.5853    3.2525   -0.0513 C.ar      1 <0>        -0.1236
      4 C4          6.3100    2.7249   -0.0420 C.ar      1 <0>        -0.0802
      5 C5          6.1305    1.3429   -0.0479 C.ar      1 <0>        -0.0364
      6 C6          7.2412    0.5012   -0.0574 C.ar      1 <0>        -0.0992
      7 C7          8.5118    1.0398   -0.0719 C.ar      1 <0>        -0.1214
      8 C8          4.7622    0.7698   -0.0380 C.2       1 <0>         0.1036
      9 C9          4.5813   -0.5889   -0.0437 C.2       1 <0>        -0.1925
     10 S1          2.7958   -0.6852   -0.0279 S.3       1 <0>         0.0283
     11 C10         2.4784    1.0739   -0.0154 C.2       1 <0>         0.1557
     12 N1          3.7078    1.5636   -0.0298 N.2       1 <0>        -0.4867
     13 C11         1.1856    1.7913    0.0004 C.ar      1 <0>        -0.0132
     14 C12        -0.0126    1.0758    0.0080 C.ar      1 <0>        -0.0787
     15 C13        -1.2156    1.7506    0.0173 C.ar      1 <0>        -0.1074
     16 C14        -1.2359    3.1351    0.0308 C.ar      1 <0>        -0.0177
     17 C15        -0.0502    3.8504    0.0233 C.ar      1 <0>        -0.1098
     18 C16         1.1588    3.1866    0.0082 C.ar      1 <0>        -0.0572
     19 Cl1        -2.7537    3.9774    0.0499 Cl        1 <0>        -0.0584
     20 H1         10.4190    3.1291    0.9485 H         1 <0>         0.0727
     21 H2         10.7480    2.3167   -0.6007 H         1 <0>         0.0678
     22 H3         10.0605    3.9585   -0.5850 H         1 <0>         0.0679
     23 H4          7.7256    4.3233   -0.0471 H         1 <0>         0.1254
     24 H5          5.4529    3.3818   -0.0298 H         1 <0>         0.1321
     25 H6          7.1079   -0.5706   -0.0571 H         1 <0>         0.1243
     26 H7          9.3732    0.3885   -0.0838 H         1 <0>         0.1264
     27 H8          5.3144   -1.3819   -0.0550 H         1 <0>         0.2025
     28 H9          0.0021   -0.0041    0.0020 H         1 <0>         0.1376
     29 H10        -2.1435    1.1979    0.0183 H         1 <0>         0.1440
     30 H11        -0.0722    4.9302    0.0290 H         1 <0>         0.1436
     31 H12         2.0829    3.7456    0.0020 H         1 <0>         0.1459
@<TRIPOS>BOND
     1    1    2 1
     2    1   20 1
     3    1   21 1
     4    1   22 1
     5    2    7 ar
     6    2    3 ar
     7    3    4 ar
     8    3   23 1
     9    4    5 ar
    10    4   24 1
    11    5    6 ar
    12    5    8 1
    13    6    7 ar
    14    6   25 1
    15    7   26 1
    16    8   12 1
    17    8    9 2
    18    9   10 1
    19    9   27 1
    20   10   11 1
    21   11   12 2
    22   11   13 1
    23   13   18 ar
    24   13   14 ar
    25   14   15 ar
    26   14   28 1
    27   15   16 ar
    28   15   29 1
    29   16   17 ar
    30   16   19 1
    31   17   18 ar
    32   17   30 1
    33   18   31 1
@<TRIPOS>MOLECULE
ZINC70840283
   27    28     0     0     0
SMALL
USER_CHARGES

@<TRIPOS>ATOM
      1 C1         -0.0187    1.5258    0.0104 C.3       1 <0>        -0.1771
      2 C2          0.0021   -0.0041    0.0020 C.3       1 <0>         0.1166
      3 H1         -1.0205   -0.3814    0.0098 H         1 <0>         0.1527
      4 C3          0.7309   -0.5033    1.2229 C.2       1 <0>        -0.0130
      5 C4          0.1265   -1.3832    2.0641 C.2       1 <0>        -0.1960
      6 S1          1.4141   -1.6112    3.2842 S.3       1 <0>         0.1442
      7 C5          2.6139   -0.5124    2.5426 C.2       1 <0>         0.1585
      8 N1          1.9527   -0.0931    1.4727 N.2       1 <0>        -0.5047
      9 C6          3.9780   -0.1687    2.9968 C.ar      1 <0>        -0.0365
     10 C7          4.7555    0.7285    2.2628 C.ar      1 <0>        -0.0253
     11 C8          6.0271    1.0461    2.6910 C.ar      1 <0>        -0.1472
     12 C9          6.5345    0.4763    3.8484 C.ar      1 <0>         0.1511
     13 C10         5.7681   -0.4149    4.5816 C.ar      1 <0>        -0.1409
     14 C11         4.4916   -0.7361    4.1651 C.ar      1 <0>         0.0094
     15 Cl1         3.5292   -1.8475    5.0882 Cl        1 <0>        -0.0130
     16 F1          7.7813    0.7910    4.2628 F         1 <0>        -0.1156
     17 N2          0.6897   -0.4778   -1.2066 N.4       1 <0>        -0.6341
     18 H2          1.0039    1.9031    0.0027 H         1 <0>         0.0895
     19 H3         -0.5459    1.8868   -0.8726 H         1 <0>         0.0858
     20 H4         -0.5289    1.8773    0.9072 H         1 <0>         0.1035
     21 H5         -0.8586   -1.8227    2.0107 H         1 <0>         0.2073
     22 H6          4.3618    1.1730    1.3607 H         1 <0>         0.1551
     23 H7          6.6293    1.7400    2.1233 H         1 <0>         0.1579
     24 H8          6.1684   -0.8562    5.4823 H         1 <0>         0.1626
     25 H9          0.2017   -0.1436   -2.0240 H         1 <0>         0.4370
     26 H10         1.6363   -0.1286   -1.2138 H         1 <0>         0.4375
     27 H11         0.7033   -1.4867   -1.2121 H         1 <0>         0.4347
@<TRIPOS>BOND
     1    1    2 1
     2    1   18 1
     3    1   19 1
     4    1   20 1
     5    2    3 1
     6    2    4 1
     7    2   17 1
     8    4    8 1
     9    4    5 2
    10    5    6 1
    11    5   21 1
    12    6    7 1
    13    7    8 2
    14    7    9 1
    15    9   14 ar
    16    9   10 ar
    17   10   11 ar
    18   10   22 1
    19   11   12 ar
    20   11   23 1
    21   12   13 ar
    22   12   16 1
    23   13   14 ar
    24   13   24 1
    25   14   15 1
    26   17   25 1
    27   17   26 1
    28   17   27 1
@<TRIPOS>MOLECULE
ZINC70840278
   27    28     0     0     0
SMALL
USER_CHARGES

@<TRIPOS>ATOM
      1 C1         -0.0187    1.5258    0.0104 C.3       1 <0>        -0.1747
      2 C2          0.0021   -0.0041    0.0020 C.3       1 <0>         0.1090
      3 H1          0.5123   -0.3556   -0.8948 H         1 <0>         0.1567
      4 C3          0.7309   -0.5033    1.2229 C.2       1 <0>         0.0346
      5 C4          0.1265   -1.3832    2.0641 C.2       1 <0>        -0.2807
      6 S1          1.4141   -1.6112    3.2842 S.3       1 <0>         0.1515
      7 C5          2.6139   -0.5124    2.5426 C.2       1 <0>         0.1719
      8 N1          1.9527   -0.0931    1.4727 N.2       1 <0>        -0.4913
      9 C6          3.9780   -0.1687    2.9968 C.ar      1 <0>        -0.0404
     10 C7          4.7555    0.7285    2.2628 C.ar      1 <0>        -0.0206
     11 C8          6.0271    1.0461    2.6910 C.ar      1 <0>        -0.1469
     12 C9          6.5345    0.4763    3.8484 C.ar      1 <0>         0.1531
     13 C10         5.7681   -0.4149    4.5816 C.ar      1 <0>        -0.1421
     14 C11         4.4916   -0.7361    4.1651 C.ar      1 <0>         0.0110
     15 Cl1         3.5292   -1.8475    5.0882 Cl        1 <0>        -0.0145
     16 F1          7.7813    0.7910    4.2628 F         1 <0>        -0.1152
     17 N2         -1.3761   -0.5125    0.0124 N.4       1 <0>        -0.6346
     18 H2          1.0039    1.9031    0.0027 H         1 <0>         0.1146
     19 H3         -0.5459    1.8868   -0.8726 H         1 <0>         0.0875
     20 H4         -0.5289    1.8773    0.9072 H         1 <0>         0.0804
     21 H5         -0.8586   -1.8227    2.0107 H         1 <0>         0.1952
     22 H6          4.3618    1.1730    1.3607 H         1 <0>         0.1583
     23 H7          6.6293    1.7400    2.1233 H         1 <0>         0.1592
     24 H8          6.1684   -0.8562    5.4823 H         1 <0>         0.1629
     25 H9         -1.3624   -1.5214    0.0069 H         1 <0>         0.4367
     26 H10        -1.8484   -0.1871    0.8426 H         1 <0>         0.4350
     27 H11        -1.8641   -0.1783   -0.8050 H         1 <0>         0.4436
@<TRIPOS>BOND
     1    1    2 1
     2    1   18 1
     3    1   19 1
     4    1   20 1
     5    2    3 1
     6    2    4 1
     7    2   17 1
     8    4    8 1
     9    4    5 2
    10    5    6 1
    11    5   21 1
    12    6    7 1
    13    7    8 2
    14    7    9 1
    15    9   14 ar
    16    9   10 ar
    17   10   11 ar
    18   10   22 1
    19   11   12 ar
    20   11   23 1
    21   12   13 ar
    22   12   16 1
    23   13   14 ar
    24   13   24 1
    25   14   15 1
    26   17   25 1
    27   17   26 1
    28   17   27 1
@<TRIPOS>MOLECULE
ZINC04089313
   30    31     0     0     0
SMALL
USER_CHARGES
2-[2-(p-tolyl)thiazol-4-yl]ethanamine
@<TRIPOS>ATOM
      1 C1         -2.5541    3.8649    0.0473 C.3       1 <0>        -0.1262
      2 C2         -1.2362    3.1342    0.0308 C.ar      1 <0>        -0.0502
      3 C3         -1.2158    1.7509    0.0173 C.ar      1 <0>        -0.1178
      4 C4         -0.0126    1.0758    0.0080 C.ar      1 <0>        -0.0803
      5 C5          1.1854    1.7914    0.0004 C.ar      1 <0>        -0.0441
      6 C6          1.1578    3.1866    0.0082 C.ar      1 <0>        -0.0612
      7 C7         -0.0520    3.8496    0.0233 C.ar      1 <0>        -0.1241
      8 C8          2.4785    1.0744   -0.0164 C.2       1 <0>         0.1803
      9 N1          3.7110    1.5624   -0.0256 N.2       1 <0>        -0.5154
     10 C9          4.7573    0.7705   -0.0399 C.2       1 <0>         0.0418
     11 C10         4.5861   -0.5782   -0.0456 C.2       1 <0>        -0.1993
     12 S1          2.8009   -0.6842   -0.0217 S.3       1 <0>         0.0558
     13 C11         6.1463    1.3551   -0.0507 C.3       1 <0>        -0.0698
     14 C12         6.2836    2.3220   -1.2285 C.3       1 <0>         0.0016
     15 H1          7.7535    3.5343   -2.0082 H         1 <0>         0.4415
     16 H2          7.8484    3.3391   -0.3594 H         1 <0>         0.4378
     17 H3         -2.8816    4.0466   -0.9763 H         1 <0>         0.0799
     18 H4         -3.2985    3.2600    0.5651 H         1 <0>         0.0742
     19 H5         -2.4353    4.8167    0.5652 H         1 <0>         0.0733
     20 H6         -2.1437    1.1982    0.0187 H         1 <0>         0.1363
     21 H7          0.0021   -0.0041    0.0020 H         1 <0>         0.1286
     22 H8          2.0815    3.7462    0.0020 H         1 <0>         0.1325
     23 H9         -0.0748    4.9293    0.0297 H         1 <0>         0.1340
     24 H10         5.3237   -1.3670   -0.0574 H         1 <0>         0.2025
     25 H11         6.3220    1.8912    0.8819 H         1 <0>         0.1014
     26 H12         6.8773    0.5530   -0.1520 H         1 <0>         0.1014
     27 H13         6.1078    1.7858   -2.1611 H         1 <0>         0.1308
     28 H14         5.5525    3.1241   -1.1272 H         1 <0>         0.1426
     29 N2          7.6511    2.8707   -1.2422 N.4       1 <0>        -0.6464
     30 H15         8.3212    2.1036   -1.3716 H         1 <0>         0.4386
@<TRIPOS>BOND
     1    1    2 1
     2    1   17 1
     3    1   18 1
     4    1   19 1
     5    2    7 ar
     6    2    3 ar
     7    3    4 ar
     8    3   20 1
     9    4    5 ar
    10    4   21 1
    11    5    6 ar
    12    5    8 1
    13    6    7 ar
    14    6   22 1
    15    7   23 1
    16    8   12 1
    17    8    9 2
    18    9   10 1
    19   10   11 2
    20   10   13 1
    21   11   12 1
    22   11   24 1
    23   13   14 1
    24   13   25 1
    25   13   26 1
    26   14   27 1
    27   14   28 1
    28   14   29 1
    29   15   29 1
    30   16   29 1
    31   29   30 1
@<TRIPOS>MOLECULE
ZINC86583997
   35    37     0     0     0
SMALL
USER_CHARGES

@<TRIPOS>ATOM
      1 C1         -0.0173    1.4248    0.0099 C.3       1 <0>         0.0189
      2 O1          0.0021   -0.0041    0.0020 O.3       1 <0>        -0.2946
      3 C2          0.6257   -0.6183    1.0413 C.ar      1 <0>         0.1769
      4 C3          1.2017    0.1420    2.0504 C.ar      1 <0>        -0.1960
      5 C4          1.8349   -0.4772    3.1067 C.ar      1 <0>        -0.0349
      6 C5          1.8970   -1.8708    3.1617 C.ar      1 <0>        -0.0724
      7 C6          1.3171   -2.6324    2.1458 C.ar      1 <0>        -0.0154
      8 C7          0.6805   -2.0057    1.0946 C.ar      1 <0>        -0.0778
      9 Cl1        -0.0476   -2.9513   -0.1662 Cl        1 <0>        -0.0339
     10 C8          2.5756   -2.5381    4.2927 C.2       1 <0>         0.1915
     11 N1          2.7468   -3.8319    4.5263 N.2       1 <0>        -0.5107
     12 C9          3.3824   -4.2529    5.5951 C.2       1 <0>        -0.0072
     13 C10         3.8787   -3.3545    6.4858 C.2       1 <0>        -0.1830
     14 S1          3.3935   -1.8178    5.7101 S.3       1 <0>         0.0924
     15 C11         3.5611   -5.7301    5.8340 C.3       1 <0>         0.0828
     16 N2          2.3687   -6.2653    6.5046 N.4       1 <0>        -0.4783
     17 C12         2.5428   -7.7053    6.7375 C.3       1 <0>        -0.0841
     18 C13         1.5796   -8.6575    6.0260 C.3       1 <0>        -0.1534
     19 C14         1.4548   -8.4288    7.5336 C.3       1 <0>        -0.1541
     20 H1          1.0053    1.8021    0.0021 H         1 <0>         0.0648
     21 H2         -0.5445    1.7859   -0.8732 H         1 <0>         0.1128
     22 H3         -0.5275    1.7763    0.9067 H         1 <0>         0.0645
     23 H4          1.1538    1.2201    2.0074 H         1 <0>         0.1530
     24 H5          2.2828    0.1152    3.8908 H         1 <0>         0.1386
     25 H6          1.3630   -3.7107    2.1849 H         1 <0>         0.1519
     26 H7          4.4200   -3.5220    7.4053 H         1 <0>         0.2105
     27 H8          3.7002   -6.2383    4.8798 H         1 <0>         0.1457
     28 H9          4.4359   -5.8931    6.4635 H         1 <0>         0.1459
     29 H10         2.2399   -5.7949    7.3879 H         1 <0>         0.4266
     30 H11         3.5717   -8.0384    6.8736 H         1 <0>         0.1793
     31 H12         0.8168   -8.2156    5.3850 H         1 <0>         0.1214
     32 H13         1.9748   -9.6175    5.6936 H         1 <0>         0.1345
     33 H14         1.7679   -9.2382    8.1931 H         1 <0>         0.1348
     34 H15         0.6099   -7.8363    7.8845 H         1 <0>         0.1204
     35 H16         1.5589   -6.1144    5.9219 H         1 <0>         0.4288
@<TRIPOS>BOND
     1    1    2 1
     2    1   20 1
     3    1   21 1
     4    1   22 1
     5    2    3 1
     6    3    8 ar
     7    3    4 ar
     8    4    5 ar
     9    4   23 1
    10    5    6 ar
    11    5   24 1
    12    6    7 ar
    13    6   10 1
    14    7    8 ar
    15    7   25 1
    16    8    9 1
    17   10   14 1
    18   10   11 2
    19   11   12 1
    20   12   13 2
    21   12   15 1
    22   13   14 1
    23   13   26 1
    24   15   16 1
    25   15   27 1
    26   15   28 1
    27   16   17 1
    28   16   29 1
    29   16   35 1
    30   17   19 1
    31   17   18 1
    32   17   30 1
    33   18   19 1
    34   18   31 1
    35   18   32 1
    36   19   33 1
    37   19   34 1
@<TRIPOS>MOLECULE
ZINC40999684
   36    37     0     0     0
SMALL
USER_CHARGES

@<TRIPOS>ATOM
      1 C1         -0.0184    1.5028    0.0103 C.3       1 <0>        -0.1224
      2 C2          0.0021   -0.0041    0.0020 C.ar      1 <0>        -0.1119
      3 C3          0.0057   -0.6860   -1.1970 C.ar      1 <0>        -0.0578
      4 C4          0.0246   -2.0813   -1.2032 C.ar      1 <0>        -0.0490
      5 C5          0.0398   -2.7795    0.0053 C.ar      1 <0>        -0.0403
      6 C6          0.0360   -2.0881    1.1983 C.ar      1 <0>        -0.1502
      7 C7          0.0229   -0.7020    1.1989 C.ar      1 <0>         0.1347
      8 F1          0.0253   -0.0293    2.3704 F         1 <0>        -0.1226
      9 C8          0.0281   -2.8174   -2.4854 C.2       1 <0>         0.1848
     10 N1          0.0393   -4.1247   -2.7050 N.2       1 <0>        -0.5074
     11 C9          0.0402   -4.6108   -3.9242 C.2       1 <0>        -0.0070
     12 C10         0.0296   -3.7671   -4.9899 C.2       1 <0>        -0.1826
     13 S1          0.0104   -2.1843   -4.1575 S.3       1 <0>         0.0956
     14 C11         0.0536   -6.1019   -4.1422 C.3       1 <0>         0.0739
     15 N2          1.4381   -6.5910   -4.0971 N.4       1 <0>        -0.5067
     16 C12         1.4511   -8.0445   -4.3096 C.3       1 <0>         0.0244
     17 C13         2.8980   -8.5357   -4.3870 C.3       1 <0>        -0.1843
     18 C14         0.7392   -8.7365   -3.1455 C.3       1 <0>        -0.1855
     19 H1          1.0042    1.8801    0.0026 H         1 <0>         0.0829
     20 H2         -0.5455    1.8639   -0.8728 H         1 <0>         0.0787
     21 H3         -0.5286    1.8543    0.9071 H         1 <0>         0.0788
     22 H4         -0.0065   -0.1409   -2.1293 H         1 <0>         0.1388
     23 H5          0.0541   -3.8594    0.0060 H         1 <0>         0.1449
     24 H6          0.0478   -2.6274    2.1340 H         1 <0>         0.1503
     25 H7          0.0287   -3.9907   -6.0465 H         1 <0>         0.2106
     26 H8         -0.5294   -6.5887   -3.3603 H         1 <0>         0.1464
     27 H9         -0.3811   -6.3308   -5.1153 H         1 <0>         0.1456
     28 H10         1.9777   -6.1404   -4.8209 H         1 <0>         0.4260
     29 H11         0.9371   -8.2801   -5.2415 H         1 <0>         0.1404
     30 H12         3.4120   -8.3001   -3.4552 H         1 <0>         0.0814
     31 H13         2.9077   -9.6142   -4.5447 H         1 <0>         0.1079
     32 H14         3.4052   -8.0427   -5.2164 H         1 <0>         0.0815
     33 H15         1.2532   -8.5010   -2.2136 H         1 <0>         0.0825
     34 H16        -0.2916   -8.3866   -3.0903 H         1 <0>         0.0818
     35 H17         0.7489   -9.8150   -3.3031 H         1 <0>         0.1066
     36 H18         1.8404   -6.3792   -3.1964 H         1 <0>         0.4291
@<TRIPOS>BOND
     1    1    2 1
     2    1   19 1
     3    1   20 1
     4    1   21 1
     5    2    7 ar
     6    2    3 ar
     7    3    4 ar
     8    3   22 1
     9    4    5 ar
    10    4    9 1
    11    5    6 ar
    12    5   23 1
    13    6    7 ar
    14    6   24 1
    15    7    8 1
    16    9   13 1
    17    9   10 2
    18   10   11 1
    19   11   12 2
    20   11   14 1
    21   12   13 1
    22   12   25 1
    23   14   15 1
    24   14   26 1
    25   14   27 1
    26   15   16 1
    27   15   28 1
    28   15   36 1
    29   16   17 1
    30   16   18 1
    31   16   29 1
    32   17   30 1
    33   17   31 1
    34   17   32 1
    35   18   33 1
    36   18   34 1
    37   18   35 1
@<TRIPOS>MOLECULE
ZINC43392657
   30    31     0     0     0
SMALL
USER_CHARGES

@<TRIPOS>ATOM
      1 C1         -0.0187    1.5258    0.0104 C.3       1 <0>        -0.1903
      2 C2          0.0021   -0.0041    0.0020 C.3       1 <0>        -0.0095
      3 N1         -1.3761   -0.5125    0.0124 N.4       1 <0>        -0.5093
      4 C3         -1.3562   -1.9814    0.0044 C.3       1 <0>         0.0775
      5 C4         -2.7700   -2.5030    0.0151 C.2       1 <0>        -0.0122
      6 C5         -3.3825   -2.8333   -1.1525 C.2       1 <0>        -0.1715
      7 S1         -4.9781   -3.3692   -0.5480 S.3       1 <0>         0.1237
      8 C6         -4.6559   -3.0955    1.1893 C.2       1 <0>         0.1635
      9 N2         -3.4099   -2.6442    1.1523 N.2       1 <0>        -0.4938
     10 C7         -5.5392   -3.3178    2.3539 C.ar      1 <0>         0.0141
     11 C8         -5.0856   -3.0289    3.6416 C.ar      1 <0>        -0.0857
     12 C9         -5.9145   -3.2377    4.7268 C.ar      1 <0>         0.1056
     13 C10        -7.1959   -3.7343    4.5380 C.ar      1 <0>         0.0658
     14 C11        -7.6509   -4.0234    3.2598 C.ar      1 <0>         0.1115
     15 C12        -6.8311   -3.8118    2.1682 C.ar      1 <0>        -0.1071
     16 F1         -8.8995   -4.5077    3.0818 F         1 <0>        -0.1038
     17 F2         -8.0031   -3.9374    5.6022 F         1 <0>        -0.1009
     18 F3         -5.4763   -2.9583    5.9739 F         1 <0>        -0.1058
     19 H1          1.0039    1.9031    0.0027 H         1 <0>         0.1086
     20 H2         -0.5459    1.8868   -0.8726 H         1 <0>         0.0806
     21 H3         -0.5289    1.8773    0.9072 H         1 <0>         0.0809
     22 H4          0.5123   -0.3556   -0.8948 H         1 <0>         0.1329
     23 H5          0.5293   -0.3651    0.8851 H         1 <0>         0.1331
     24 H6         -1.8484   -0.1871    0.8426 H         1 <0>         0.4312
     25 H7         -0.8460   -2.3329   -0.8924 H         1 <0>         0.1474
     26 H8         -0.8290   -2.3425    0.8874 H         1 <0>         0.1466
     27 H9         -3.0093   -2.7851   -2.1648 H         1 <0>         0.2143
     28 H10        -4.0878   -2.6429    3.7895 H         1 <0>         0.1662
     29 H11        -7.1878   -4.0326    1.1730 H         1 <0>         0.1602
     30 H12        -1.8641   -0.1783   -0.8050 H         1 <0>         0.4263
@<TRIPOS>BOND
     1    1    2 1
     2    1   19 1
     3    1   20 1
     4    1   21 1
     5    2    3 1
     6    2   22 1
     7    2   23 1
     8    3    4 1
     9    3   24 1
    10    3   30 1
    11    4    5 1
    12    4   25 1
    13    4   26 1
    14    5    9 1
    15    5    6 2
    16    6    7 1
    17    6   27 1
    18    7    8 1
    19    8    9 2
    20    8   10 1
    21   10   15 ar
    22   10   11 ar
    23   11   12 ar
    24   11   28 1
    25   12   13 ar
    26   12   18 1
    27   13   14 ar
    28   13   17 1
    29   14   15 ar
    30   14   16 1
    31   15   29 1
@<TRIPOS>MOLECULE
ZINC71548676
   28    29     0     0     0
SMALL
USER_CHARGES

@<TRIPOS>ATOM
      1 C1         -0.0173    1.4248    0.0099 C.3       1 <0>         0.0194
      2 O1          0.0021   -0.0041    0.0020 O.3       1 <0>        -0.2987
      3 C2          0.6058   -0.6071   -1.0557 C.ar      1 <0>         0.1362
      4 C3          1.1724    0.1638   -2.0614 C.ar      1 <0>        -0.1811
      5 C4          1.7858   -0.4439   -3.1363 C.ar      1 <0>        -0.0477
      6 C5          1.8374   -1.8367   -3.2135 C.ar      1 <0>        -0.0563
      7 C6          1.2670   -2.6101   -2.2010 C.ar      1 <0>        -0.0605
      8 C7          0.6595   -1.9949   -1.1251 C.ar      1 <0>         0.0707
      9 F1          0.1121   -2.7415   -0.1412 F         1 <0>        -0.1201
     10 C8          2.4940   -2.4911   -4.3649 C.2       1 <0>         0.1895
     11 N1          2.6432   -3.7823   -4.6262 N.2       1 <0>        -0.5105
     12 C9          3.2612   -4.1910   -5.7100 C.2       1 <0>        -0.0115
     13 C10         3.7616   -3.2822   -6.5879 C.2       1 <0>        -0.1835
     14 S1          3.2940   -1.7545   -5.7841 S.3       1 <0>         0.0980
     15 C11         3.4159   -5.6655   -5.9799 C.3       1 <0>         0.0791
     16 N2          4.6060   -6.1690   -5.2813 N.4       1 <0>        -0.6350
     17 H1          1.0053    1.8021    0.0021 H         1 <0>         0.0650
     18 H2         -0.5445    1.7859   -0.8732 H         1 <0>         0.0653
     19 H3         -0.5275    1.7763    0.9067 H         1 <0>         0.1130
     20 H4          1.1322    1.2414   -2.0020 H         1 <0>         0.1543
     21 H5          2.2259    0.1573   -3.9182 H         1 <0>         0.1397
     22 H6          1.3049   -3.6880   -2.2572 H         1 <0>         0.1549
     23 H7          4.2914   -3.4391   -7.5159 H         1 <0>         0.2110
     24 H8          2.5331   -6.1950   -5.6217 H         1 <0>         0.1476
     25 H9          3.5275   -5.8289   -7.0518 H         1 <0>         0.1485
     26 H10         5.4232   -5.6788   -5.6129 H         1 <0>         0.4337
     27 H11         4.5026   -6.0177   -4.2890 H         1 <0>         0.4386
     28 H12         4.7096   -7.1563   -5.4620 H         1 <0>         0.4406
@<TRIPOS>BOND
     1    1    2 1
     2    1   17 1
     3    1   18 1
     4    1   19 1
     5    2    3 1
     6    3    8 ar
     7    3    4 ar
     8    4    5 ar
     9    4   20 1
    10    5    6 ar
    11    5   21 1
    12    6    7 ar
    13    6   10 1
    14    7    8 ar
    15    7   22 1
    16    8    9 1
    17   10   14 1
    18   10   11 2
    19   11   12 1
    20   12   13 2
    21   12   15 1
    22   13   14 1
    23   13   23 1
    24   15   16 1
    25   15   24 1
    26   15   25 1
    27   16   26 1
    28   16   27 1
    29   16   28 1
@<TRIPOS>MOLECULE
ZINC80801825
   27    28     0     0     0
SMALL
USER_CHARGES

@<TRIPOS>ATOM
      1 C1         -0.0187    1.5258    0.0104 C.3       1 <0>        -0.1760
      2 C2          0.0021   -0.0041    0.0020 C.3       1 <0>         0.1094
      3 H1          0.5123   -0.3556   -0.8948 H         1 <0>         0.1594
      4 C3          0.7309   -0.5033    1.2229 C.2       1 <0>         0.0379
      5 C4          0.1264   -1.3833    2.0642 C.2       1 <0>        -0.2510
      6 S1          1.4141   -1.6112    3.2843 S.3       1 <0>         0.1334
      7 C5          2.6138   -0.5124    2.5425 C.2       1 <0>         0.1777
      8 N1          1.9525   -0.0932    1.4727 N.2       1 <0>        -0.4872
      9 C6          3.9781   -0.1682    2.9969 C.ar      1 <0>         0.0100
     10 C7          4.7548    0.7288    2.2624 C.ar      1 <0>        -0.0818
     11 C8          6.0288    1.0479    2.6910 C.ar      1 <0>         0.1058
     12 C9          6.5363    0.4777    3.8493 C.ar      1 <0>         0.0681
     13 C10         5.7679   -0.4149    4.5822 C.ar      1 <0>         0.1104
     14 C11         4.4906   -0.7350    4.1645 C.ar      1 <0>        -0.1055
     15 F1          6.2675   -0.9679    5.7090 F         1 <0>        -0.1039
     16 F2          7.7829    0.7922    4.2645 F         1 <0>        -0.1004
     17 F3          6.7816    1.9163    1.9808 F         1 <0>        -0.1048
     18 N2         -1.3761   -0.5125    0.0124 N.4       1 <0>        -0.6354
     19 H2          1.0039    1.9031    0.0027 H         1 <0>         0.1156
     20 H3         -0.5459    1.8868   -0.8726 H         1 <0>         0.0894
     21 H4         -0.5289    1.8773    0.9072 H         1 <0>         0.0814
     22 H5         -0.8586   -1.8228    2.0109 H         1 <0>         0.2019
     23 H6          4.3607    1.1727    1.3602 H         1 <0>         0.1682
     24 H7          3.8912   -1.4263    4.7384 H         1 <0>         0.1599
     25 H8         -1.8641   -0.1783   -0.8050 H         1 <0>         0.4452
     26 H9         -1.3624   -1.5214    0.0069 H         1 <0>         0.4370
     27 H10        -1.8484   -0.1871    0.8426 H         1 <0>         0.4354
@<TRIPOS>BOND
     1    1    2 1
     2    1   19 1
     3    1   20 1
     4    1   21 1
     5    2    3 1
     6    2    4 1
     7    2   18 1
     8    4    8 1
     9    4    5 2
    10    5    6 1
    11    5   22 1
    12    6    7 1
    13    7    8 2
    14    7    9 1
    15    9   14 ar
    16    9   10 ar
    17   10   11 ar
    18   10   23 1
    19   11   12 ar
    20   11   17 1
    21   12   13 ar
    22   12   16 1
    23   13   14 ar
    24   13   15 1
    25   14   24 1
    26   18   25 1
    27   18   26 1
    28   18   27 1
@<TRIPOS>MOLECULE
ZINC80801827
   27    28     0     0     0
SMALL
USER_CHARGES

@<TRIPOS>ATOM
      1 C1         -0.0187    1.5258    0.0104 C.3       1 <0>        -0.1784
      2 C2          0.0021   -0.0041    0.0020 C.3       1 <0>         0.1173
      3 H1          0.5123   -0.3556   -0.8948 H         1 <0>         0.1549
      4 C3         -1.4117   -0.5257    0.0127 C.2       1 <0>        -0.0104
      5 C4         -1.8246   -1.3932   -0.9489 C.2       1 <0>        -0.1657
      6 S1         -3.5211   -1.6576   -0.4485 S.3       1 <0>         0.1259
      7 C5         -3.4953   -0.5867    0.9831 C.2       1 <0>         0.1632
      8 N1         -2.2449   -0.1472    0.9537 N.2       1 <0>        -0.5005
      9 C6         -4.5759   -0.2784    1.9439 C.ar      1 <0>         0.0146
     10 C7         -4.3420    0.6014    3.0015 C.ar      1 <0>        -0.0868
     11 C8         -5.3548    0.8869    3.8967 C.ar      1 <0>         0.1055
     12 C9         -6.6026    0.3001    3.7457 C.ar      1 <0>         0.0658
     13 C10        -6.8395   -0.5755    2.6961 C.ar      1 <0>         0.1121
     14 C11        -5.8345   -0.8619    1.7926 C.ar      1 <0>        -0.1072
     15 F1         -8.0564   -1.1449    2.5542 F         1 <0>        -0.1035
     16 F2         -7.5901    0.5818    4.6237 F         1 <0>        -0.1007
     17 F3         -5.1294    1.7385    4.9210 F         1 <0>        -0.1059
     18 N2          0.7126   -0.4907    1.1921 N.4       1 <0>        -0.6345
     19 H2          1.0039    1.9031    0.0027 H         1 <0>         0.0876
     20 H3         -0.5459    1.8868   -0.8726 H         1 <0>         0.1045
     21 H4         -0.5289    1.8773    0.9072 H         1 <0>         0.0903
     22 H5         -1.2793   -1.8076   -1.7839 H         1 <0>         0.2145
     23 H6         -3.3706    1.0582    3.1203 H         1 <0>         0.1652
     24 H7         -6.0212   -1.5400    0.9729 H         1 <0>         0.1602
     25 H8          0.2403   -0.1653    2.0223 H         1 <0>         0.4382
     26 H9          0.7262   -1.4996    1.1866 H         1 <0>         0.4351
     27 H10         1.6592   -0.1415    1.1850 H         1 <0>         0.4386
@<TRIPOS>BOND
     1    1    2 1
     2    1   19 1
     3    1   20 1
     4    1   21 1
     5    2    3 1
     6    2    4 1
     7    2   18 1
     8    4    8 1
     9    4    5 2
    10    5    6 1
    11    5   22 1
    12    6    7 1
    13    7    8 2
    14    7    9 1
    15    9   14 ar
    16    9   10 ar
    17   10   11 ar
    18   10   23 1
    19   11   12 ar
    20   11   17 1
    21   12   13 ar
    22   12   16 1
    23   13   14 ar
    24   13   15 1
    25   14   24 1
    26   18   25 1
    27   18   26 1
    28   18   27 1
@<TRIPOS>MOLECULE
ZINC62938349
   34    36     0     0     0
SMALL
USER_CHARGES

@<TRIPOS>ATOM
      1 C1         -0.0167    1.3791    0.0096 C.ar      1 <0>        -0.0903
      2 C2          1.1675    2.0879    0.0021 C.ar      1 <0>        -0.0876
      3 C3          2.3837    1.4075   -0.0132 C.ar      1 <0>         0.0252
      4 C4          2.3966    0.0139   -0.0208 C.ar      1 <0>        -0.1074
      5 C5          1.2063   -0.6846   -0.0132 C.ar      1 <0>        -0.0877
      6 C6          0.0021   -0.0041    0.0020 C.ar      1 <0>        -0.1744
      7 C7         -1.2943   -0.7724    0.0108 C.3       1 <0>         0.0484
      8 N1         -1.7293   -1.0147   -1.3713 N.4       1 <0>        -0.6372
      9 C8          3.6599    2.1639   -0.0218 C.2       1 <0>         0.0775
     10 C9          4.8581    1.4985   -0.0421 C.2       1 <0>        -0.1872
     11 S1          6.0006    2.8742   -0.0443 S.3       1 <0>         0.0618
     12 C10         4.7783    4.1782   -0.0183 C.2       1 <0>         0.1683
     13 N2          3.6518    3.4836   -0.0155 N.2       1 <0>        -0.4940
     14 C11         4.9738    5.6438   -0.0082 C.ar      1 <0>        -0.0252
     15 C12         3.8702    6.4976    0.0189 C.ar      1 <0>        -0.0549
     16 C13         4.0588    7.8640    0.0287 C.ar      1 <0>        -0.1108
     17 C14         5.3401    8.3889    0.0112 C.ar      1 <0>        -0.0122
     18 C15         6.4389    7.5468   -0.0157 C.ar      1 <0>        -0.1060
     19 C16         6.2628    6.1787   -0.0199 C.ar      1 <0>        -0.0749
     20 Cl1         5.5696   10.1097    0.0225 Cl        1 <0>        -0.0503
     21 H1         -0.9597    1.9052    0.0260 H         1 <0>         0.1350
     22 H2          1.1517    3.1677    0.0077 H         1 <0>         0.1451
     23 H3          3.3362   -0.5184   -0.0330 H         1 <0>         0.1375
     24 H4          1.2151   -1.7645   -0.0191 H         1 <0>         0.1359
     25 H5         -1.1480   -1.7260    0.5181 H         1 <0>         0.1400
     26 H6         -2.0555   -0.1948    0.5353 H         1 <0>         0.1400
     27 H7         -1.8647   -0.1319   -1.8408 H         1 <0>         0.4348
     28 H8         -1.0247   -1.5493   -1.8568 H         1 <0>         0.4344
     29 H9          5.0571    0.4371   -0.0530 H         1 <0>         0.2043
     30 H10         2.8704    6.0893    0.0318 H         1 <0>         0.1439
     31 H11         3.2055    8.5257    0.0496 H         1 <0>         0.1453
     32 H12         7.4359    7.9618   -0.0292 H         1 <0>         0.1470
     33 H13         7.1206    5.5227   -0.0367 H         1 <0>         0.1382
     34 H14        -2.5973   -1.5291   -1.3654 H         1 <0>         0.4376
@<TRIPOS>BOND
     1    1    6 ar
     2    1    2 ar
     3    1   21 1
     4    2    3 ar
     5    2   22 1
     6    3    4 ar
     7    3    9 1
     8    4    5 ar
     9    4   23 1
    10    5    6 ar
    11    5   24 1
    12    6    7 1
    13    7    8 1
    14    7   25 1
    15    7   26 1
    16    8   27 1
    17    8   28 1
    18    8   34 1
    19    9   13 1
    20    9   10 2
    21   10   11 1
    22   10   29 1
    23   11   12 1
    24   12   13 2
    25   12   14 1
    26   14   19 ar
    27   14   15 ar
    28   15   16 ar
    29   15   30 1
    30   16   17 ar
    31   16   31 1
    32   17   18 ar
    33   17   20 1
    34   18   19 ar
    35   18   32 1
    36   19   33 1
@<TRIPOS>MOLECULE
ZINC03348292
   28    30     0     0     0
SMALL
USER_CHARGES
4-(2-chlorophenyl)-2-phenyl-thiazole
@<TRIPOS>ATOM
      1 C1         -3.3597    8.1482   -0.3202 C.ar      1 <0>        -0.0985
      2 C2         -2.0849    8.6756   -0.2163 C.ar      1 <0>        -0.1183
      3 C3         -0.9926    7.8368   -0.1349 C.ar      1 <0>        -0.0915
      4 C4         -1.1758    6.4536   -0.1571 C.ar      1 <0>        -0.0194
      5 C5         -2.4638    5.9280   -0.2669 C.ar      1 <0>        -0.0682
      6 C6         -3.5482    6.7778   -0.3423 C.ar      1 <0>        -0.1207
      7 C7         -0.0095    5.5486   -0.0707 C.2       1 <0>         0.1626
      8 N1          0.0266    4.2257   -0.0812 N.2       1 <0>        -0.4745
      9 C8          1.1682    3.5700    0.0096 C.2       1 <0>         0.0971
     10 C9          2.3417    4.2723    0.1053 C.2       1 <0>        -0.1866
     11 S1          1.7267    5.9510    0.0672 S.3       1 <0>         0.0210
     12 C10         1.1821    2.0866    0.0020 C.ar      1 <0>        -0.0174
     13 C11         2.0690    1.3996   -0.8248 C.ar      1 <0>        -0.0909
     14 C12         2.0780    0.0196   -0.8276 C.ar      1 <0>        -0.1155
     15 C13         1.2091   -0.6826   -0.0114 C.ar      1 <0>        -0.1002
     16 C14         0.3261   -0.0071    0.8111 C.ar      1 <0>        -0.1133
     17 C15         0.3077    1.3742    0.8221 C.ar      1 <0>        -0.0087
     18 Cl1        -0.8007    2.2212    1.8554 Cl        1 <0>        -0.0519
     19 H1         -4.2114    8.8092   -0.3841 H         1 <0>         0.1291
     20 H2         -1.9445    9.7463   -0.1992 H         1 <0>         0.1319
     21 H3          0.0021    8.2497   -0.0538 H         1 <0>         0.1268
     22 H4         -2.6119    4.8585   -0.2887 H         1 <0>         0.1359
     23 H5         -4.5459    6.3723   -0.4232 H         1 <0>         0.1315
     24 H6          3.3567    3.9115    0.1819 H         1 <0>         0.2015
     25 H7          2.7512    1.9462   -1.4589 H         1 <0>         0.1334
     26 H8          2.7651   -0.5134   -1.4680 H         1 <0>         0.1336
     27 H9          1.2202   -1.7625   -0.0169 H         1 <0>         0.1347
     28 H10        -0.3504   -0.5604    1.4456 H         1 <0>         0.1365
@<TRIPOS>BOND
     1    1    6 ar
     2    1    2 ar
     3    1   19 1
     4    2    3 ar
     5    2   20 1
     6    3    4 ar
     7    3   21 1
     8    4    5 ar
     9    4    7 1
    10    5    6 ar
    11    5   22 1
    12    6   23 1
    13    7   11 1
    14    7    8 2
    15    8    9 1
    16    9   10 2
    17    9   12 1
    18   10   11 1
    19   10   24 1
    20   12   17 ar
    21   12   13 ar
    22   13   14 ar
    23   13   25 1
    24   14   15 ar
    25   14   26 1
    26   15   16 ar
    27   15   27 1
    28   16   17 ar
    29   16   28 1
    30   17   18 1
@<TRIPOS>MOLECULE
ZINC40999586
   26    27     0     0     0
SMALL
USER_CHARGES

@<TRIPOS>ATOM
      1 C1         -0.0178    1.4648    0.0101 C.3       1 <0>        -0.0469
      2 N1          0.0021   -0.0041    0.0020 N.4       1 <0>        -0.5087
      3 C2         -1.3761   -0.5125    0.0124 C.3       1 <0>         0.0768
      4 C3         -1.3556   -2.0194    0.0042 C.2       1 <0>        -0.0133
      5 C4         -1.4430   -2.7087    1.1741 C.2       1 <0>        -0.1760
      6 S1         -1.3720   -4.3911    0.5713 S.3       1 <0>         0.1155
      7 C5         -1.2342   -3.9936   -1.1666 C.2       1 <0>         0.1683
      8 N2         -1.2591   -2.6687   -1.1308 N.2       1 <0>        -0.4971
      9 C6         -1.1266   -4.8990   -2.3306 C.ar      1 <0>         0.0088
     10 C7         -1.0200   -4.3902   -3.6302 C.ar      1 <0>        -0.1229
     11 C8         -0.9217   -5.2711   -4.6871 C.ar      1 <0>         0.1092
     12 N3         -0.9274   -6.5749   -4.4853 N.ar      1 <0>        -0.4624
     13 C9         -1.0260   -7.0961   -3.2772 C.ar      1 <0>         0.1141
     14 C10        -1.1226   -6.2887   -2.1630 C.ar      1 <0>        -0.1433
     15 H1          1.0047    1.8421    0.0024 H         1 <0>         0.1282
     16 H2         -0.5450    1.8259   -0.8730 H         1 <0>         0.1256
     17 H3         -0.5280    1.8163    0.9069 H         1 <0>         0.1254
     18 H4          0.4744   -0.3295   -0.8281 H         1 <0>         0.4332
     19 H5         -1.8863   -0.1610    0.9092 H         1 <0>         0.1470
     20 H6         -1.9033   -0.1515   -0.8706 H         1 <0>         0.1459
     21 H7         -1.5303   -2.3418    2.1861 H         1 <0>         0.2132
     22 H8         -1.0151   -3.3241   -3.8029 H         1 <0>         0.1471
     23 H9         -0.8394   -4.8882   -5.6936 H         1 <0>         0.1698
     24 H10        -1.0266   -8.1696   -3.1586 H         1 <0>         0.1715
     25 H11        -1.1980   -6.7221   -1.1767 H         1 <0>         0.1421
     26 H12         0.4901   -0.3383    0.8195 H         1 <0>         0.4286
@<TRIPOS>BOND
     1    1    2 1
     2    1   15 1
     3    1   16 1
     4    1   17 1
     5    2    3 1
     6    2   18 1
     7    2   26 1
     8    3    4 1
     9    3   19 1
    10    3   20 1
    11    4    8 1
    12    4    5 2
    13    5    6 1
    14    5   21 1
    15    6    7 1
    16    7    8 2
    17    7    9 1
    18    9   14 ar
    19    9   10 ar
    20   10   11 ar
    21   10   22 1
    22   11   12 ar
    23   11   23 1
    24   12   13 ar
    25   13   14 ar
    26   13   24 1
    27   14   25 1
@<TRIPOS>MOLECULE
ZINC39419268
   21    22     0     0     0
SMALL
USER_CHARGES

@<TRIPOS>ATOM
      1 C1         -0.0167    1.3793    0.0096 C.ar      1 <0>        -0.0972
      2 C2          1.1684    2.0932    0.0021 C.ar      1 <0>        -0.1181
      3 C3          2.3774    1.4288   -0.0130 C.ar      1 <0>        -0.0905
      4 C4          2.4033    0.0336   -0.0208 C.ar      1 <0>        -0.0219
      5 C5          1.2044   -0.6806   -0.0131 C.ar      1 <0>        -0.0680
      6 C6          0.0021   -0.0041    0.0020 C.ar      1 <0>        -0.1206
      7 C7          3.6955   -0.6850   -0.0375 C.2       1 <0>         0.1652
      8 N1          3.9328   -1.9891   -0.0523 N.2       1 <0>        -0.4894
      9 C8          5.1581   -2.4586   -0.0660 C.2       1 <0>         0.0569
     10 C9          6.2126   -1.6003   -0.0651 C.2       1 <0>        -0.1880
     11 S1          5.3587   -0.0288   -0.0511 S.3       1 <0>         0.0284
     12 C10         5.3961   -3.9466   -0.0821 C.3       1 <0>        -0.0200
     13 I1          5.4955   -4.6384   -2.1280 I         1 <0>        -0.1241
     14 H1         -0.9605    1.9041    0.0260 H         1 <0>         0.1297
     15 H2          1.1469    3.1730    0.0078 H         1 <0>         0.1324
     16 H3          3.3018    1.9873   -0.0192 H         1 <0>         0.1270
     17 H4          1.2177   -1.7605   -0.0194 H         1 <0>         0.1359
     18 H5         -0.9265   -0.5556    0.0083 H         1 <0>         0.1322
     19 H6          7.2721   -1.8094   -0.0745 H         1 <0>         0.2017
     20 H7          6.3359   -4.1697    0.4229 H         1 <0>         0.1142
     21 H8          4.5784   -4.4509    0.4326 H         1 <0>         0.1140
@<TRIPOS>BOND
     1    1    6 ar
     2    1    2 ar
     3    1   14 1
     4    2    3 ar
     5    2   15 1
     6    3    4 ar
     7    3   16 1
     8    4    5 ar
     9    4    7 1
    10    5    6 ar
    11    5   17 1
    12    6   18 1
    13    7   11 1
    14    7    8 2
    15    8    9 1
    16    9   10 2
    17    9   12 1
    18   10   11 1
    19   10   19 1
    20   12   13 1
    21   12   20 1
    22   12   21 1
@<TRIPOS>MOLECULE
ZINC00158877
   21    22     0     0     0
SMALL
USER_CHARGES
4-(chloromethyl)-2-phenyl-thiazole
@<TRIPOS>ATOM
      1 C1          2.3776    1.4189   -0.0135 C.ar      1 <0>        -0.0972
      2 C2          1.1702    2.0943    0.0021 C.ar      1 <0>        -0.1180
      3 C3         -0.0168    1.3913    0.0097 C.ar      1 <0>        -0.0906
      4 C4          0.0021   -0.0041    0.0020 C.ar      1 <0>        -0.0222
      5 C5          1.2232   -0.6793   -0.0133 C.ar      1 <0>        -0.0682
      6 C6          2.4032    0.0356   -0.0207 C.ar      1 <0>        -0.1204
      7 C7         -1.2664   -0.7639    0.0105 C.2       1 <0>         0.1631
      8 N1         -1.4618   -2.0750    0.0054 N.2       1 <0>        -0.4881
      9 C8         -2.6714   -2.5837    0.0147 C.2       1 <0>         0.0408
     10 C9         -3.7528   -1.7598    0.0299 C.2       1 <0>        -0.1817
     11 S1         -2.9498   -0.1617    0.0384 S.3       1 <0>         0.0288
     12 C10        -2.8616   -4.0786    0.0081 C.3       1 <0>         0.0362
     13 Cl1        -2.9210   -4.6845    1.7052 Cl        1 <0>        -0.1661
     14 H1          3.3041    1.9738   -0.0197 H         1 <0>         0.1299
     15 H2          1.1570    3.1742    0.0077 H         1 <0>         0.1326
     16 H3         -0.9587    1.9197    0.0170 H         1 <0>         0.1271
     17 H4          1.2446   -1.7590   -0.0189 H         1 <0>         0.1362
     18 H5          3.3490   -0.4857   -0.0325 H         1 <0>         0.1325
     19 H6         -4.8050   -2.0029    0.0387 H         1 <0>         0.2037
     20 H7         -3.7952   -4.3239   -0.4982 H         1 <0>         0.1115
     21 H8         -2.0296   -4.5484   -0.5165 H         1 <0>         0.1101
@<TRIPOS>BOND
     1    1    6 ar
     2    1    2 ar
     3    1   14 1
     4    2    3 ar
     5    2   15 1
     6    3    4 ar
     7    3   16 1
     8    4    5 ar
     9    4    7 1
    10    5    6 ar
    11    5   17 1
    12    6   18 1
    13    7   11 1
    14    7    8 2
    15    8    9 1
    16    9   10 2
    17    9   12 1
    18   10   11 1
    19   10   19 1
    20   12   13 1
    21   12   20 1
    22   12   21 1
@<TRIPOS>MOLECULE
ZINC40999772
   27    28     0     0     0
SMALL
USER_CHARGES

@<TRIPOS>ATOM
      1 C1         -0.0166    1.3752    0.0096 C.ar      1 <0>        -0.0834
      2 C2          1.1704    2.0863    0.0021 C.ar      1 <0>        -0.0895
      3 C3          2.3826    1.4201   -0.0135 C.ar      1 <0>        -0.0623
      4 C4          2.4151    0.0406   -0.0217 C.ar      1 <0>        -0.1641
      5 C5          1.2218   -0.6823   -0.0138 C.ar      1 <0>         0.0179
      6 C6          0.0021   -0.0041    0.0020 C.ar      1 <0>        -0.0683
      7 C7          1.2492   -2.1607   -0.0230 C.2       1 <0>         0.1302
      8 N1          0.2406   -3.0209   -0.0232 N.2       1 <0>        -0.4879
      9 C8          0.4498   -4.3163   -0.0326 C.2       1 <0>        -0.0254
     10 C9          1.7215   -4.7971   -0.0424 C.2       1 <0>        -0.2072
     11 S1          2.6517   -3.2696   -0.0448 S.3       1 <0>         0.1689
     12 C10        -0.7175   -5.2694   -0.0321 C.3       1 <0>         0.0800
     13 N2         -1.1657   -5.4940    1.3487 N.4       1 <0>        -0.6351
     14 C11         3.7366   -0.6835   -0.0398 C.3       1 <0>         0.4938
     15 F1          4.7794    0.2491   -0.0454 F         1 <0>        -0.1577
     16 F2          3.8407   -1.4924    1.0969 F         1 <0>        -0.1611
     17 F3          3.8166   -1.4794   -1.1875 F         1 <0>        -0.1596
     18 H1         -0.9597    1.9012    0.0260 H         1 <0>         0.1479
     19 H2          1.1504    3.1661    0.0081 H         1 <0>         0.1496
     20 H3          3.3056    1.9809   -0.0197 H         1 <0>         0.1533
     21 H4         -0.9251   -0.5579    0.0083 H         1 <0>         0.1470
     22 H5          2.0727   -5.8184   -0.0508 H         1 <0>         0.2079
     23 H6         -1.5345   -4.8436   -0.6146 H         1 <0>         0.1462
     24 H7         -0.4122   -6.2180   -0.4738 H         1 <0>         0.1476
     25 H8         -1.9473   -6.1321    1.3491 H         1 <0>         0.4399
     26 H9         -0.4094   -5.8881    1.8879 H         1 <0>         0.4337
     27 H10        -1.4483   -4.6159    1.7576 H         1 <0>         0.4377
@<TRIPOS>BOND
     1    1    6 ar
     2    1    2 ar
     3    1   18 1
     4    2    3 ar
     5    2   19 1
     6    3    4 ar
     7    3   20 1
     8    4    5 ar
     9    4   14 1
    10    5    6 ar
    11    5    7 1
    12    6   21 1
    13    7   11 1
    14    7    8 2
    15    8    9 1
    16    9   10 2
    17    9   12 1
    18   10   11 1
    19   10   22 1
    20   12   13 1
    21   12   23 1
    22   12   24 1
    23   13   25 1
    24   13   26 1
    25   13   27 1
    26   14   15 1
    27   14   16 1
    28   14   17 1
@<TRIPOS>MOLECULE
ZINC43393126
   37    39     0     0     0
SMALL
USER_CHARGES

@<TRIPOS>ATOM
      1 C1         -0.0184    1.5028    0.0103 C.3       1 <0>        -0.1195
      2 C2          0.0021   -0.0041    0.0020 C.ar      1 <0>        -0.0793
      3 C3          0.0058   -0.6877   -1.2008 C.ar      1 <0>        -0.0875
      4 C4          0.0245   -2.0710   -1.2171 C.ar      1 <0>        -0.0731
      5 C5          0.0401   -2.7777   -0.0322 C.ar      1 <0>        -0.0929
      6 C6          0.0369   -2.0941    1.1844 C.ar      1 <0>        -0.0343
      7 C7          0.0228   -0.6988    1.1938 C.ar      1 <0>        -0.0717
      8 C8          0.0530   -2.8452    2.4581 C.2       1 <0>         0.1886
      9 N1          0.0475   -2.3902    3.7031 N.2       1 <0>        -0.5097
     10 C9          0.0639   -3.2095    4.7281 C.2       1 <0>        -0.0091
     11 C10         0.0869   -4.5531    4.5211 C.2       1 <0>        -0.1843
     12 S1          0.0771   -4.6117    2.7336 S.3       1 <0>         0.0919
     13 C11         0.0577   -2.6621    6.1321 C.3       1 <0>         0.0833
     14 N2          1.4330   -2.3476    6.5412 N.4       1 <0>        -0.4783
     15 C12         1.4270   -1.8140    7.9098 C.3       1 <0>        -0.0840
     16 C13         1.8969   -0.3714    8.1078 C.3       1 <0>        -0.1534
     17 C14         2.7810   -1.5335    8.5648 C.3       1 <0>        -0.1540
     18 C15         0.0274   -2.8075   -2.5318 C.3       1 <0>        -0.1219
     19 H1          1.0042    1.8801    0.0026 H         1 <0>         0.0767
     20 H2         -0.5455    1.8639   -0.8728 H         1 <0>         0.0744
     21 H3         -0.5286    1.8543    0.9071 H         1 <0>         0.0701
     22 H4         -0.0064   -0.1392   -2.1310 H         1 <0>         0.1348
     23 H5          0.0543   -3.8575   -0.0462 H         1 <0>         0.1279
     24 H6          0.0241   -0.1639    2.1321 H         1 <0>         0.1336
     25 H7          0.1025   -5.3611    5.2376 H         1 <0>         0.2103
     26 H8         -0.5477   -1.7563    6.1662 H         1 <0>         0.1450
     27 H9         -0.3620   -3.4054    6.8100 H         1 <0>         0.1457
     28 H10         1.9934   -3.1861    6.5096 H         1 <0>         0.4266
     29 H11         0.6226   -2.1741    8.5512 H         1 <0>         0.1793
     30 H12         2.2106    0.1817    7.2224 H         1 <0>         0.1210
     31 H13         1.4016    0.2178    8.8794 H         1 <0>         0.1344
     32 H14         2.8673   -1.7088    9.6371 H         1 <0>         0.1349
     33 H15         3.6763   -1.7450    7.9801 H         1 <0>         0.1203
     34 H16         1.0556   -2.9711   -2.8544 H         1 <0>         0.0785
     35 H17        -0.4728   -3.7684   -2.4111 H         1 <0>         0.0717
     36 H18        -0.4986   -2.2157   -3.2809 H         1 <0>         0.0752
     37 H19         1.8216   -1.6596    5.9137 H         1 <0>         0.4286
@<TRIPOS>BOND
     1    1    2 1
     2    1   19 1
     3    1   20 1
     4    1   21 1
     5    2    7 ar
     6    2    3 ar
     7    3    4 ar
     8    3   22 1
     9    4    5 ar
    10    4   18 1
    11    5    6 ar
    12    5   23 1
    13    6    7 ar
    14    6    8 1
    15    7   24 1
    16    8   12 1
    17    8    9 2
    18    9   10 1
    19   10   11 2
    20   10   13 1
    21   11   12 1
    22   11   25 1
    23   13   14 1
    24   13   26 1
    25   13   27 1
    26   14   15 1
    27   14   28 1
    28   14   37 1
    29   15   17 1
    30   15   16 1
    31   15   29 1
    32   16   17 1
    33   16   30 1
    34   16   31 1
    35   17   32 1
    36   17   33 1
    37   18   34 1
    38   18   35 1
    39   18   36 1
@<TRIPOS>MOLECULE
ZINC00109906
   24    25     0     0     0
SMALL
USER_CHARGES

@<TRIPOS>ATOM
      1 C1         -0.0167    1.3793    0.0096 C.ar      1 <0>        -0.0991
      2 C2          1.1684    2.0931    0.0021 C.ar      1 <0>        -0.1158
      3 C3          2.3774    1.4285   -0.0134 C.ar      1 <0>        -0.0937
      4 C4          2.4031    0.0335   -0.0212 C.ar      1 <0>        -0.0174
      5 C5          1.2045   -0.6805   -0.0131 C.ar      1 <0>        -0.0725
      6 C6          0.0021   -0.0041    0.0020 C.ar      1 <0>        -0.1191
      7 C7          3.6958   -0.6854   -0.0384 C.2       1 <0>         0.1121
      8 N1          3.9256   -1.9857   -0.0532 N.2       1 <0>        -0.4635
      9 C8          5.1833   -2.4050   -0.0671 C.2       1 <0>        -0.0085
     10 C9          6.1936   -1.4800   -0.0657 C.2       1 <0>        -0.1965
     11 S1          5.3521   -0.0224   -0.0525 S.3       1 <0>         0.1810
     12 C10         5.4899   -3.8458   -0.0834 C.2       1 <0>         0.5922
     13 O1          6.6467   -4.2213   -0.0956 O.2       1 <0>        -0.5240
     14 N2          4.4886   -4.7479   -0.0846 N.am      1 <0>        -0.5609
     15 N3          4.7729   -6.0839   -0.0997 N.3       1 <0>        -0.6017
     16 H1         -0.9604    1.9041    0.0260 H         1 <0>         0.1296
     17 H2          1.1471    3.1729    0.0082 H         1 <0>         0.1328
     18 H3          3.3018    1.9868   -0.0200 H         1 <0>         0.1280
     19 H4          1.2178   -1.7604   -0.0194 H         1 <0>         0.1340
     20 H5         -0.9265   -0.5556    0.0079 H         1 <0>         0.1317
     21 H6          7.2610   -1.6445   -0.0756 H         1 <0>         0.2119
     22 H7          3.5660   -4.4485   -0.0749 H         1 <0>         0.4107
     23 H8          5.3686   -6.3356    0.6748 H         1 <0>         0.3481
     24 H9          3.9269   -6.6337   -0.0987 H         1 <0>         0.3605
@<TRIPOS>BOND
     1    1    6 ar
     2    1    2 ar
     3    1   16 1
     4    2    3 ar
     5    2   17 1
     6    3    4 ar
     7    3   18 1
     8    4    5 ar
     9    4    7 1
    10    5    6 ar
    11    5   19 1
    12    6   20 1
    13    7   11 1
    14    7    8 2
    15    8    9 1
    16    9   10 2
    17    9   12 1
    18   10   11 1
    19   10   21 1
    20   12   13 2
    21   12   14 am
    22   14   15 1
    23   14   22 1
    24   15   23 1
    25   15   24 1
@<TRIPOS>MOLECULE
ZINC41010100
   39    40     0     0     0
SMALL
USER_CHARGES

@<TRIPOS>ATOM
      1 C1         -0.0184    1.5028    0.0103 C.3       1 <0>        -0.1289
      2 C2          0.0021   -0.0041    0.0020 C.ar      1 <0>        -0.0468
      3 C3          0.0057   -0.6863   -1.2018 C.ar      1 <0>        -0.1193
      4 C4          0.0249   -2.0656   -1.2163 C.ar      1 <0>        -0.0637
      5 C5          0.0405   -2.7729   -0.0133 C.ar      1 <0>        -0.0472
      6 C6          0.0368   -2.0789    1.1972 C.ar      1 <0>        -0.0806
      7 C7          0.0229   -0.6991    1.1979 C.ar      1 <0>        -0.0815
      8 C8          0.0250    0.0522    2.5042 C.3       1 <0>        -0.1234
      9 C9          0.0606   -4.2514   -0.0214 C.2       1 <0>         0.1912
     10 N1          0.0722   -5.0870   -1.0504 N.2       1 <0>        -0.5113
     11 C10         0.0898   -6.3870   -0.8724 C.2       1 <0>        -0.0061
     12 C11         0.0964   -6.8982    0.3874 C.2       1 <0>        -0.1868
     13 S1          0.0837   -5.3936    1.3541 S.3       1 <0>         0.0878
     14 C12         0.1021   -7.3116   -2.0623 C.3       1 <0>         0.0743
     15 N2         -1.2747   -7.5349   -2.5232 N.4       1 <0>        -0.5066
     16 C13        -1.2627   -8.4363   -3.6831 C.3       1 <0>         0.0244
     17 C14        -2.7009   -8.7682   -4.0860 C.3       1 <0>        -0.1842
     18 C15        -0.5502   -7.7534   -4.8523 C.3       1 <0>        -0.1854
     19 H1          1.0042    1.8801    0.0026 H         1 <0>         0.0814
     20 H2         -0.5455    1.8639   -0.8728 H         1 <0>         0.0744
     21 H3         -0.5286    1.8543    0.9071 H         1 <0>         0.0768
     22 H4         -0.0068   -0.1378   -2.1321 H         1 <0>         0.1361
     23 H5          0.0273   -2.5969   -2.1566 H         1 <0>         0.1339
     24 H6          0.0489   -2.6204    2.1315 H         1 <0>         0.1282
     25 H7         -1.0020    0.2194    2.8289 H         1 <0>         0.0782
     26 H8          0.5540   -0.5310    3.2579 H         1 <0>         0.0714
     27 H9          0.5246    1.0118    2.3707 H         1 <0>         0.0771
     28 H10         0.1097   -7.9276    0.7138 H         1 <0>         0.2094
     29 H11         0.6858   -6.8622   -2.8657 H         1 <0>         0.1458
     30 H12         0.5489   -8.2642   -1.7776 H         1 <0>         0.1450
     31 H13        -1.8151   -7.9510   -1.7795 H         1 <0>         0.4259
     32 H14        -0.7368   -9.3551   -3.4238 H         1 <0>         0.1402
     33 H15        -3.2269   -7.8494   -4.3453 H         1 <0>         0.0813
     34 H16        -2.6920   -9.4370   -4.9467 H         1 <0>         0.1078
     35 H17        -3.2085   -9.2547   -3.2531 H         1 <0>         0.0815
     36 H18        -1.0762   -6.8346   -5.1116 H         1 <0>         0.0824
     37 H19         0.4744   -7.5170   -4.5653 H         1 <0>         0.0818
     38 H20        -0.5413   -8.4222   -5.7129 H         1 <0>         0.1065
     39 H21        -1.6884   -6.6532   -2.7868 H         1 <0>         0.4290
@<TRIPOS>BOND
     1    1    2 1
     2    1   19 1
     3    1   20 1
     4    1   21 1
     5    2    7 ar
     6    2    3 ar
     7    3    4 ar
     8    3   22 1
     9    4    5 ar
    10    4   23 1
    11    5    6 ar
    12    5    9 1
    13    6    7 ar
    14    6   24 1
    15    7    8 1
    16    8   25 1
    17    8   26 1
    18    8   27 1
    19    9   13 1
    20    9   10 2
    21   10   11 1
    22   11   12 2
    23   11   14 1
    24   12   13 1
    25   12   28 1
    26   14   15 1
    27   14   29 1
    28   14   30 1
    29   15   16 1
    30   15   31 1
    31   15   39 1
    32   16   17 1
    33   16   18 1
    34   16   32 1
    35   17   33 1
    36   17   34 1
    37   17   35 1
    38   18   36 1
    39   18   37 1
    40   18   38 1
@<TRIPOS>MOLECULE
ZINC40414601
   28    29     0     0     0
SMALL
USER_CHARGES

@<TRIPOS>ATOM
      1 C1         -0.0173    1.4248    0.0099 C.3       1 <0>         0.0232
      2 O1          0.0021   -0.0041    0.0020 O.3       1 <0>        -0.3166
      3 C2         -1.1995   -0.6371    0.0101 C.ar      1 <0>         0.1628
      4 C3         -2.3734    0.0990    0.0195 C.ar      1 <0>        -0.2063
      5 C4         -3.5955   -0.5461    0.0278 C.ar      1 <0>        -0.0421
      6 C5         -3.6564   -1.9291    0.0272 C.ar      1 <0>        -0.1570
      7 C6         -2.4969   -2.6760    0.0178 C.ar      1 <0>        -0.0275
      8 C7         -1.2570   -2.0360    0.0031 C.ar      1 <0>        -0.0767
      9 C8         -0.0112   -2.8305   -0.0131 C.2       1 <0>         0.1898
     10 N1          0.1473   -4.1468   -0.0271 N.2       1 <0>        -0.5181
     11 C9          1.3431   -4.6888   -0.0412 C.2       1 <0>        -0.0132
     12 C10         2.4464   -3.8954   -0.0416 C.2       1 <0>        -0.2088
     13 S1          1.6885   -2.2756   -0.0270 S.3       1 <0>         0.1353
     14 C11         1.4918   -6.1884   -0.0565 C.3       1 <0>         0.0799
     15 N2          1.4298   -6.7006    1.3189 N.4       1 <0>        -0.6347
     16 H1          1.0053    1.8021    0.0021 H         1 <0>         0.1092
     17 H2         -0.5445    1.7859   -0.8732 H         1 <0>         0.0653
     18 H3         -0.5275    1.7763    0.9067 H         1 <0>         0.0650
     19 H4         -2.3332    1.1783    0.0208 H         1 <0>         0.1428
     20 H5         -4.5078    0.0318    0.0351 H         1 <0>         0.1388
     21 H6         -4.6157   -2.4251    0.0344 H         1 <0>         0.1387
     22 H7         -2.5485   -3.7548    0.0177 H         1 <0>         0.1412
     23 H8          3.4915   -4.1677   -0.0517 H         1 <0>         0.2063
     24 H9          0.6858   -6.6274   -0.6444 H         1 <0>         0.1456
     25 H10         2.4514   -6.4538   -0.5002 H         1 <0>         0.1465
     26 H11         0.5415   -6.4549    1.7296 H         1 <0>         0.4380
     27 H12         1.5294   -7.7046    1.3087 H         1 <0>         0.4392
     28 H13         2.1759   -6.2941    1.8631 H         1 <0>         0.4334
@<TRIPOS>BOND
     1    1    2 1
     2    1   16 1
     3    1   17 1
     4    1   18 1
     5    2    3 1
     6    3    8 ar
     7    3    4 ar
     8    4    5 ar
     9    4   19 1
    10    5    6 ar
    11    5   20 1
    12    6    7 ar
    13    6   21 1
    14    7    8 ar
    15    7   22 1
    16    8    9 1
    17    9   13 1
    18    9   10 2
    19   10   11 1
    20   11   12 2
    21   11   14 1
    22   12   13 1
    23   12   23 1
    24   14   15 1
    25   14   24 1
    26   14   25 1
    27   15   26 1
    28   15   27 1
    29   15   28 1
@<TRIPOS>MOLECULE
ZINC35384836
   29    30     0     0     0
SMALL
USER_CHARGES

@<TRIPOS>ATOM
      1 C1         -0.0167    1.3793    0.0096 C.ar      1 <0>        -0.0896
      2 C2          1.1684    2.0932    0.0021 C.ar      1 <0>        -0.1172
      3 C3          2.3774    1.4288   -0.0130 C.ar      1 <0>        -0.0868
      4 C4          2.4033    0.0336   -0.0208 C.ar      1 <0>        -0.0342
      5 C5          1.2044   -0.6806   -0.0131 C.ar      1 <0>        -0.0643
      6 C6          0.0021   -0.0041    0.0020 C.ar      1 <0>        -0.1200
      7 C7          3.6955   -0.6850   -0.0375 C.2       1 <0>         0.1777
      8 N1          3.9328   -1.9891   -0.0523 N.2       1 <0>        -0.5005
      9 C8          5.1581   -2.4586   -0.0660 C.2       1 <0>         0.0023
     10 C9          6.2126   -1.6003   -0.0651 C.2       1 <0>        -0.1786
     11 S1          5.3587   -0.0288   -0.0511 S.3       1 <0>         0.0701
     12 C10         5.3961   -3.9466   -0.0821 C.3       1 <0>         0.0731
     13 N2          5.3640   -4.4625    1.2929 N.4       1 <0>        -0.4825
     14 C11         5.5960   -5.9130    1.2772 C.3       1 <0>        -0.0831
     15 C12         5.5631   -6.4423    2.6878 C.2       1 <0>         0.4840
     16 O1          5.3648   -5.6818    3.6198 O.co2     1 <0>        -0.6754
     17 O2          5.7348   -7.6311    2.8970 O.co2     1 <0>        -0.6396
     18 H1         -0.9605    1.9041    0.0260 H         1 <0>         0.1326
     19 H2          1.1469    3.1730    0.0078 H         1 <0>         0.1350
     20 H3          3.3018    1.9873   -0.0192 H         1 <0>         0.1277
     21 H4          1.2177   -1.7605   -0.0194 H         1 <0>         0.1364
     22 H5         -0.9265   -0.5556    0.0083 H         1 <0>         0.1349
     23 H6          7.2721   -1.8094   -0.0745 H         1 <0>         0.2103
     24 H7          4.6181   -4.4326   -0.6708 H         1 <0>         0.1385
     25 H8          6.3701   -4.1540   -0.5254 H         1 <0>         0.1395
     26 H9          6.0842   -4.0126    1.8379 H         1 <0>         0.4253
     27 H10         4.8180   -6.3991    0.6885 H         1 <0>         0.1270
     28 H11         6.5700   -6.1204    0.8339 H         1 <0>         0.1268
     29 H12         4.4624   -4.2706    1.7032 H         1 <0>         0.4303
@<TRIPOS>BOND
     1    1    6 ar
     2    1    2 ar
     3    1   18 1
     4    2    3 ar
     5    2   19 1
     6    3    4 ar
     7    3   20 1
     8    4    5 ar
     9    4    7 1
    10    5    6 ar
    11    5   21 1
    12    6   22 1
    13    7   11 1
    14    7    8 2
    15    8    9 1
    16    9   10 2
    17    9   12 1
    18   10   11 1
    19   10   23 1
    20   12   13 1
    21   12   24 1
    22   12   25 1
    23   13   14 1
    24   13   26 1
    25   13   29 1
    26   14   15 1
    27   14   27 1
    28   14   28 1
    29   15   16 2
    30   15   17 1
@<TRIPOS>MOLECULE
ZINC52859414
   20    21     0     0     0
SMALL
USER_CHARGES

@<TRIPOS>ATOM
      1 C1         -0.0167    1.3804    0.0096 C.ar      1 <0>        -0.0638
      2 C2          1.1677    2.0943    0.0022 C.ar      1 <0>        -0.1339
      3 C3          2.3789    1.4286   -0.0135 C.ar      1 <0>         0.1227
      4 C4          2.4041    0.0313   -0.0212 C.ar      1 <0>        -0.0314
      5 C5          1.2052   -0.6817   -0.0131 C.ar      1 <0>        -0.0385
      6 C6          0.0021   -0.0041    0.0020 C.ar      1 <0>        -0.0461
      7 Cl1        -1.4907   -0.8902    0.0115 Cl        1 <0>        -0.0462
      8 C7          3.6958   -0.6881   -0.0384 C.2       1 <0>         0.0861
      9 N1          3.9210   -1.9877   -0.0531 N.2       1 <0>        -0.4262
     10 C8          5.1842   -2.4145   -0.0679 C.2       1 <0>        -0.0612
     11 C9          6.1994   -1.4743   -0.0672 C.2       1 <0>        -0.2237
     12 S1          5.3501   -0.0217   -0.0525 S.3       1 <0>         0.2127
     13 C10         5.4902   -3.8468   -0.0842 C.2       1 <0>         0.4025
     14 O1          4.5893   -4.6598   -0.0847 O.2       1 <0>        -0.4349
     15 F1          3.5354    2.1269   -0.0217 F         1 <0>        -0.1212
     16 H1         -0.9605    1.9051    0.0260 H         1 <0>         0.1524
     17 H2          1.1462    3.1740    0.0082 H         1 <0>         0.1569
     18 H3          1.2178   -1.7616   -0.0194 H         1 <0>         0.1573
     19 H4          7.2677   -1.6329   -0.0774 H         1 <0>         0.2130
     20 H5          6.5177   -4.1793   -0.0957 H         1 <0>         0.1234
@<TRIPOS>BOND
     1    1    6 ar
     2    1    2 ar
     3    1   16 1
     4    2    3 ar
     5    2   17 1
     6    3    4 ar
     7    3   15 1
     8    4    5 ar
     9    4    8 1
    10    5    6 ar
    11    5   18 1
    12    6    7 1
    13    8   12 1
    14    8    9 2
    15    9   10 1
    16   10   11 2
    17   10   13 1
    18   11   12 1
    19   11   19 1
    20   13   14 2
    21   13   20 1
@<TRIPOS>MOLECULE
ZINC40999569
   30    31     0     0     0
SMALL
USER_CHARGES

@<TRIPOS>ATOM
      1 C1         -0.0178    1.4648    0.0101 C.3       1 <0>        -0.0469
      2 N1          0.0021   -0.0041    0.0020 N.4       1 <0>        -0.5086
      3 C2          0.7126   -0.4907    1.1921 C.3       1 <0>         0.0769
      4 C3          0.7330   -1.9975    1.1838 C.2       1 <0>        -0.0118
      5 C4          1.8061   -2.6612    0.6773 C.2       1 <0>        -0.1775
      6 S1          1.2911   -4.3564    0.9221 S.3       1 <0>         0.1055
      7 C5         -0.2925   -3.9969    1.6702 C.2       1 <0>         0.1756
      8 N2         -0.2825   -2.6713    1.6704 N.2       1 <0>        -0.5029
      9 C6         -1.3313   -4.9276    2.1615 C.ar      1 <0>        -0.0381
     10 C7         -2.5133   -4.4308    2.7128 C.ar      1 <0>        -0.0344
     11 C8         -3.4784   -5.3043    3.1693 C.ar      1 <0>        -0.1157
     12 C9         -3.2765   -6.6704    3.0815 C.ar      1 <0>        -0.0393
     13 C10        -2.1070   -7.1693    2.5366 C.ar      1 <0>        -0.1757
     14 C11        -1.1364   -6.3062    2.0706 C.ar      1 <0>        -0.0369
     15 C12        -1.8952   -8.6585    2.4459 C.3       1 <0>         0.5088
     16 F1         -3.0096   -9.3210    2.9716 F         1 <0>        -0.1698
     17 F2         -1.7241   -9.0245    1.1065 F         1 <0>        -0.1721
     18 F3         -0.7551   -9.0127    3.1753 F         1 <0>        -0.1714
     19 H1          1.0047    1.8421    0.0024 H         1 <0>         0.1253
     20 H2         -0.5450    1.8259   -0.8730 H         1 <0>         0.1280
     21 H3         -0.5280    1.8163    0.9069 H         1 <0>         0.1254
     22 H4         -0.9445   -0.3533    0.0092 H         1 <0>         0.4331
     23 H5          1.7352   -0.1134    1.1844 H         1 <0>         0.1466
     24 H6          0.2024   -0.1392    2.0889 H         1 <0>         0.1457
     25 H7          2.7168   -2.2725    0.2462 H         1 <0>         0.2123
     26 H8         -2.6719   -3.3647    2.7822 H         1 <0>         0.1456
     27 H9         -4.3933   -4.9212    3.5964 H         1 <0>         0.1511
     28 H10        -4.0352   -7.3502    3.4404 H         1 <0>         0.1526
     29 H11        -0.2258   -6.6969    1.6410 H         1 <0>         0.1398
     30 H12         0.4744   -0.3295   -0.8281 H         1 <0>         0.4287
@<TRIPOS>BOND
     1    1    2 1
     2    1   19 1
     3    1   20 1
     4    1   21 1
     5    2    3 1
     6    2   22 1
     7    2   30 1
     8    3    4 1
     9    3   23 1
    10    3   24 1
    11    4    8 1
    12    4    5 2
    13    5    6 1
    14    5   25 1
    15    6    7 1
    16    7    8 2
    17    7    9 1
    18    9   14 ar
    19    9   10 ar
    20   10   11 ar
    21   10   26 1
    22   11   12 ar
    23   11   27 1
    24   12   13 ar
    25   12   28 1
    26   13   14 ar
    27   13   15 1
    28   14   29 1
    29   15   16 1
    30   15   17 1
    31   15   18 1
@<TRIPOS>MOLECULE
ZINC40999723
   34    36     0     0     0
SMALL
USER_CHARGES

@<TRIPOS>ATOM
      1 C1         -0.0184    1.5028    0.0103 C.3       1 <0>        -0.1224
      2 C2          0.0021   -0.0041    0.0020 C.ar      1 <0>        -0.0780
      3 C3          0.0058   -0.6878   -1.2010 C.ar      1 <0>        -0.0851
      4 C4          0.0245   -2.0709   -1.2172 C.ar      1 <0>        -0.1153
      5 C5          0.0396   -2.7777   -0.0322 C.ar      1 <0>        -0.0699
      6 C6          0.0364   -2.0942    1.1842 C.ar      1 <0>        -0.0391
      7 C7          0.0228   -0.6986    1.1937 C.ar      1 <0>        -0.0866
      8 C8          0.0521   -2.8453    2.4579 C.2       1 <0>         0.1880
      9 N1          0.0753   -4.1548    2.6622 N.2       1 <0>        -0.5098
     10 C9          0.0869   -4.6552    3.8752 C.2       1 <0>        -0.0091
     11 C10         0.0749   -3.8239    4.9511 C.2       1 <0>        -0.1840
     12 S1          0.0525   -2.2315    4.1373 S.3       1 <0>         0.0915
     13 C11         0.1129   -6.1486    4.0755 C.3       1 <0>         0.0834
     14 N2         -1.2582   -6.6735    4.0238 N.4       1 <0>        -0.4783
     15 C12        -1.2328   -8.1292    4.2190 C.3       1 <0>        -0.0840
     16 C13        -1.7150   -9.0058    3.0614 C.3       1 <0>        -0.1534
     17 C14        -2.5776   -8.8525    4.3157 C.3       1 <0>        -0.1540
     18 H1          1.0042    1.8801    0.0026 H         1 <0>         0.0789
     19 H2         -0.5455    1.8639   -0.8728 H         1 <0>         0.0753
     20 H3         -0.5286    1.8543    0.9071 H         1 <0>         0.0713
     21 H4         -0.0064   -0.1393   -2.1312 H         1 <0>         0.1354
     22 H5          0.0269   -2.5987   -2.1595 H         1 <0>         0.1368
     23 H6          0.0535   -3.8575   -0.0462 H         1 <0>         0.1339
     24 H7          0.0245   -0.1637    2.1319 H         1 <0>         0.1282
     25 H8          0.0815   -4.0598    6.0050 H         1 <0>         0.2103
     26 H9          0.7087   -6.6104    3.2883 H         1 <0>         0.1451
     27 H10         0.5531   -6.3774    5.0460 H         1 <0>         0.1457
     28 H11        -1.8097   -6.2459    4.7525 H         1 <0>         0.4266
     29 H12        -0.4129   -8.5075    4.8295 H         1 <0>         0.1793
     30 H13        -2.0509   -8.5022    2.1549 H         1 <0>         0.1211
     31 H14        -1.2121   -9.9609    2.9100 H         1 <0>         0.1345
     32 H15        -2.6422   -9.7069    4.9895 H         1 <0>         0.1349
     33 H16        -3.4811   -8.2482    4.2344 H         1 <0>         0.1203
     34 H17        -1.6657   -6.4617    3.1254 H         1 <0>         0.4286
@<TRIPOS>BOND
     1    1    2 1
     2    1   18 1
     3    1   19 1
     4    1   20 1
     5    2    7 ar
     6    2    3 ar
     7    3    4 ar
     8    3   21 1
     9    4    5 ar
    10    4   22 1
    11    5    6 ar
    12    5   23 1
    13    6    7 ar
    14    6    8 1
    15    7   24 1
    16    8   12 1
    17    8    9 2
    18    9   10 1
    19   10   11 2
    20   10   13 1
    21   11   12 1
    22   11   25 1
    23   13   14 1
    24   13   26 1
    25   13   27 1
    26   14   15 1
    27   14   28 1
    28   14   34 1
    29   15   17 1
    30   15   16 1
    31   15   29 1
    32   16   17 1
    33   16   30 1
    34   16   31 1
    35   17   32 1
    36   17   33 1
@<TRIPOS>MOLECULE
ZINC41010072
   33    34     0     0     0
SMALL
USER_CHARGES

@<TRIPOS>ATOM
      1 C1         -0.0187    1.5258    0.0104 C.3       1 <0>        -0.1565
      2 C2          0.0021   -0.0041    0.0020 C.3       1 <0>        -0.1515
      3 C3         -1.4333   -0.5336    0.0129 C.3       1 <0>        -0.0103
      4 N1         -1.4134   -2.0025    0.0048 N.4       1 <0>        -0.5085
      5 C4         -2.7915   -2.5110    0.0152 C.3       1 <0>         0.0778
      6 C5         -2.7711   -4.0178    0.0069 C.2       1 <0>        -0.0155
      7 C6         -2.8583   -4.7062    1.1758 C.2       1 <0>        -0.2010
      8 S1         -2.7866   -6.3888    0.5739 S.3       1 <0>         0.1454
      9 C7         -2.6487   -5.9927   -1.1642 C.2       1 <0>         0.1550
     10 N2         -2.6745   -4.6676   -1.1293 N.2       1 <0>        -0.4961
     11 C8         -2.5403   -6.8987   -2.3273 C.ar      1 <0>        -0.0207
     12 C9         -2.4349   -6.3745   -3.6165 C.ar      1 <0>        -0.0419
     13 C10        -2.3341   -7.2245   -4.6978 C.ar      1 <0>        -0.1030
     14 C11        -2.3378   -8.5964   -4.5072 C.ar      1 <0>         0.0006
     15 C12        -2.4421   -9.1234   -3.2314 C.ar      1 <0>        -0.0959
     16 C13        -2.5373   -8.2827   -2.1401 C.ar      1 <0>        -0.0078
     17 Cl1        -2.6608   -8.9445   -0.5400 Cl        1 <0>        -0.0157
     18 Cl2        -2.2117   -9.6594   -5.8739 Cl        1 <0>        -0.0292
     19 H1          1.0039    1.9031    0.0027 H         1 <0>         0.0776
     20 H2         -0.5459    1.8868   -0.8726 H         1 <0>         0.0676
     21 H3         -0.5289    1.8773    0.9072 H         1 <0>         0.0674
     22 H4          0.5123   -0.3556   -0.8948 H         1 <0>         0.0863
     23 H5          0.5293   -0.3651    0.8851 H         1 <0>         0.0861
     24 H6         -1.9435   -0.1821    0.9097 H         1 <0>         0.1329
     25 H7         -1.9605   -0.1726   -0.8702 H         1 <0>         0.1331
     26 H8         -0.9411   -2.3279   -0.8254 H         1 <0>         0.4307
     27 H9         -3.3017   -2.1594    0.9120 H         1 <0>         0.1452
     28 H10        -3.3187   -2.1499   -0.8678 H         1 <0>         0.1443
     29 H11        -2.9464   -4.3389    2.1875 H         1 <0>         0.2075
     30 H12        -2.4326   -5.3050   -3.7671 H         1 <0>         0.1550
     31 H13        -2.2525   -6.8196   -5.6957 H         1 <0>         0.1553
     32 H14        -2.4444  -10.1940   -3.0890 H         1 <0>         0.1597
     33 H15        -0.9254   -2.3367    0.8222 H         1 <0>         0.4261
@<TRIPOS>BOND
     1    1    2 1
     2    1   19 1
     3    1   20 1
     4    1   21 1
     5    2    3 1
     6    2   22 1
     7    2   23 1
     8    3    4 1
     9    3   24 1
    10    3   25 1
    11    4    5 1
    12    4   26 1
    13    4   33 1
    14    5    6 1
    15    5   27 1
    16    5   28 1
    17    6   10 1
    18    6    7 2
    19    7    8 1
    20    7   29 1
    21    8    9 1
    22    9   10 2
    23    9   11 1
    24   11   16 ar
    25   11   12 ar
    26   12   13 ar
    27   12   30 1
    28   13   14 ar
    29   13   31 1
    30   14   15 ar
    31   14   18 1
    32   15   16 ar
    33   15   32 1
    34   16   17 1
@<TRIPOS>MOLECULE
ZINC41010189
   31    33     0     0     0
SMALL
USER_CHARGES

@<TRIPOS>ATOM
      1 C1         -0.0167    1.3791    0.0096 C.ar      1 <0>        -0.0627
      2 C2          1.1678    2.0936    0.0022 C.ar      1 <0>        -0.0979
      3 C3          2.3785    1.4294   -0.0134 C.ar      1 <0>        -0.0111
      4 C4          2.4051    0.0332   -0.0211 C.ar      1 <0>        -0.0171
      5 C5          1.2054   -0.6815   -0.0130 C.ar      1 <0>         0.0161
      6 C6          0.0021   -0.0041    0.0020 C.ar      1 <0>        -0.1038
      7 Cl1         1.2266   -2.4173   -0.0230 Cl        1 <0>        -0.0256
      8 C7          3.6972   -0.6848   -0.0382 C.2       1 <0>         0.1491
      9 N1          3.9348   -1.9890   -0.0531 N.2       1 <0>        -0.4782
     10 C8          5.1607   -2.4580   -0.0676 C.2       1 <0>        -0.0174
     11 C9          6.2145   -1.5994   -0.0676 C.2       1 <0>        -0.1987
     12 S1          5.3602   -0.0283   -0.0524 S.3       1 <0>         0.1444
     13 C10         5.3994   -3.9459   -0.0838 C.3       1 <0>         0.0830
     14 N2          5.3685   -4.4617    1.2913 N.4       1 <0>        -0.4786
     15 C11         5.6012   -5.9121    1.2756 C.3       1 <0>        -0.0835
     16 C12         4.4692   -6.8146    1.7704 C.3       1 <0>        -0.1540
     17 C13         5.7237   -6.6226    2.6250 C.3       1 <0>        -0.1537
     18 Cl2         3.8638    2.3281   -0.0239 Cl        1 <0>        -0.0170
     19 H1         -0.9606    1.9037    0.0260 H         1 <0>         0.1569
     20 H2          1.1457    3.1733    0.0081 H         1 <0>         0.1559
     21 H3         -0.9265   -0.5555    0.0082 H         1 <0>         0.1543
     22 H4          7.2741   -1.8082   -0.0779 H         1 <0>         0.2071
     23 H5          4.6212   -4.4323   -0.6719 H         1 <0>         0.1436
     24 H6          6.3732   -4.1528   -0.5277 H         1 <0>         0.1451
     25 H7          6.0889   -4.0114    1.8357 H         1 <0>         0.4265
     26 H8          6.2170   -6.2805    0.4551 H         1 <0>         0.1792
     27 H9          3.5518   -6.3322    2.1077 H         1 <0>         0.1204
     28 H10         4.3399   -7.7771    1.2754 H         1 <0>         0.1343
     29 H11         6.4197   -7.4588    2.6922 H         1 <0>         0.1349
     30 H12         5.6316   -6.0139    3.5245 H         1 <0>         0.1203
     31 H13         4.4671   -4.2702    1.7023 H         1 <0>         0.4282
@<TRIPOS>BOND
     1    1    6 ar
     2    1    2 ar
     3    1   19 1
     4    2    3 ar
     5    2   20 1
     6    3    4 ar
     7    3   18 1
     8    4    5 ar
     9    4    8 1
    10    5    6 ar
    11    5    7 1
    12    6   21 1
    13    8   12 1
    14    8    9 2
    15    9   10 1
    16   10   11 2
    17   10   13 1
    18   11   12 1
    19   11   22 1
    20   13   14 1
    21   13   23 1
    22   13   24 1
    23   14   15 1
    24   14   25 1
    25   14   31 1
    26   15   17 1
    27   15   16 1
    28   15   26 1
    29   16   17 1
    30   16   27 1
    31   16   28 1
    32   17   29 1
    33   17   30 1
@<TRIPOS>MOLECULE
ZINC43389060
   33    34     0     0     0
SMALL
USER_CHARGES

@<TRIPOS>ATOM
      1 C1         -0.0187    1.5258    0.0104 C.3       1 <0>        -0.1567
      2 C2          0.0021   -0.0041    0.0020 C.3       1 <0>        -0.1516
      3 C3          0.7182   -0.4975   -1.2568 C.3       1 <0>        -0.0103
      4 N1          0.7381   -1.9663   -1.2649 N.4       1 <0>        -0.5087
      5 C4          1.4257   -2.4401   -2.4735 C.3       1 <0>         0.0781
      6 C5          1.4462   -3.9469   -2.4818 C.2       1 <0>        -0.0113
      7 C6          0.4881   -4.6371   -3.1555 C.2       1 <0>        -0.1755
      8 S1          0.9999   -6.3188   -2.8260 S.3       1 <0>         0.1108
      9 C7          2.4300   -5.9200   -1.8298 C.2       1 <0>         0.1710
     10 N2          2.3919   -4.5950   -1.8431 N.2       1 <0>        -0.4982
     11 C8          3.3975   -6.8244   -1.1723 C.ar      1 <0>        -0.0048
     12 C9          4.4529   -6.2979   -0.4261 C.ar      1 <0>        -0.0632
     13 C10         5.3529   -7.1455    0.1859 C.ar      1 <0>        -0.0803
     14 C11         5.2116   -8.5171    0.0616 C.ar      1 <0>        -0.0497
     15 C12         4.1655   -9.0471   -0.6782 C.ar      1 <0>         0.1204
     16 C13         3.2553   -8.2073   -1.2910 C.ar      1 <0>        -0.1129
     17 F1          4.0332  -10.3865   -0.7962 F         1 <0>        -0.1125
     18 Cl1         6.3486   -9.5771    0.8343 Cl        1 <0>        -0.0216
     19 H1          1.0039    1.9031    0.0027 H         1 <0>         0.0677
     20 H2         -0.5459    1.8868   -0.8726 H         1 <0>         0.0675
     21 H3         -0.5289    1.8773    0.9072 H         1 <0>         0.0778
     22 H4          0.5293   -0.3651    0.8851 H         1 <0>         0.0864
     23 H5         -1.0205   -0.3814    0.0098 H         1 <0>         0.0862
     24 H6          0.1910   -0.1364   -2.1398 H         1 <0>         0.1333
     25 H7          1.7408   -0.1202   -1.2645 H         1 <0>         0.1336
     26 H8          1.2261   -2.3006   -0.4474 H         1 <0>         0.4312
     27 H9          0.8985   -2.0790   -3.3565 H         1 <0>         0.1467
     28 H10         2.4483   -2.0628   -2.4812 H         1 <0>         0.1461
     29 H11        -0.3500   -4.2713   -3.7300 H         1 <0>         0.2128
     30 H12         4.5651   -5.2282   -0.3282 H         1 <0>         0.1520
     31 H13         6.1698   -6.7381    0.7630 H         1 <0>         0.1584
     32 H14         2.4379   -8.6202   -1.8635 H         1 <0>         0.1509
     33 H15        -0.2085   -2.3156   -1.2577 H         1 <0>         0.4264
@<TRIPOS>BOND
     1    1    2 1
     2    1   19 1
     3    1   20 1
     4    1   21 1
     5    2    3 1
     6    2   22 1
     7    2   23 1
     8    3    4 1
     9    3   24 1
    10    3   25 1
    11    4    5 1
    12    4   26 1
    13    4   33 1
    14    5    6 1
    15    5   27 1
    16    5   28 1
    17    6   10 1
    18    6    7 2
    19    7    8 1
    20    7   29 1
    21    8    9 1
    22    9   10 2
    23    9   11 1
    24   11   16 ar
    25   11   12 ar
    26   12   13 ar
    27   12   30 1
    28   13   14 ar
    29   13   31 1
    30   14   15 ar
    31   14   18 1
    32   15   16 ar
    33   15   17 1
    34   16   32 1
@<TRIPOS>MOLECULE
ZINC54418918
   35    36     0     0     0
SMALL
USER_CHARGES

@<TRIPOS>ATOM
      1 C1         -0.0178    1.4648    0.0101 C.3       1 <0>         0.0122
      2 N1          0.0021   -0.0041    0.0020 N.3       1 <0>        -0.5299
      3 C2          0.7062   -0.5275    1.1802 C.3       1 <0>         0.0227
      4 C3          2.1851   -0.1430    1.1032 C.3       1 <0>        -0.0097
      5 N2          2.8892   -0.6664    2.2814 N.4       1 <0>        -0.6350
      6 C4         -1.3597   -0.5486   -0.0825 C.3       1 <0>         0.1298
      7 C5         -1.9618   -0.1908   -1.4168 C.2       1 <0>         0.0471
      8 C6         -1.8997   -1.0721   -2.4501 C.2       1 <0>        -0.2040
      9 S1         -2.7431   -0.1449   -3.7258 S.3       1 <0>         0.0843
     10 C7         -3.0854    1.3113   -2.7463 C.2       1 <0>         0.1402
     11 N3         -2.5518    0.9698   -1.5818 N.2       1 <0>        -0.4927
     12 C8         -3.7812    2.5581   -3.1301 C.ar      1 <0>        -0.0109
     13 C9         -3.9381    3.5876   -2.2011 C.ar      1 <0>        -0.0612
     14 C10        -4.5882    4.7485   -2.5654 C.ar      1 <0>        -0.1130
     15 C11        -5.0846    4.8941   -3.8489 C.ar      1 <0>        -0.0838
     16 C12        -4.9331    3.8784   -4.7752 C.ar      1 <0>        -0.1039
     17 C13        -4.2791    2.7131   -4.4254 C.ar      1 <0>        -0.0225
     18 Cl1        -4.0832    1.4417   -5.5911 Cl        1 <0>        -0.0324
     19 H1          1.0047    1.8421    0.0024 H         1 <0>         0.0654
     20 H2         -0.5450    1.8259   -0.8730 H         1 <0>         0.0908
     21 H3         -0.5280    1.8163    0.9069 H         1 <0>         0.0378
     22 H4          0.2673   -0.1040    2.0837 H         1 <0>         0.0593
     23 H5          0.6139   -1.6133    1.2060 H         1 <0>         0.0985
     24 H6          2.6240   -0.5665    0.1998 H         1 <0>         0.1435
     25 H7          2.2773    0.9428    1.0774 H         1 <0>         0.1336
     26 H8          2.4829   -0.2744    3.1177 H         1 <0>         0.4348
     27 H9          2.8038   -1.6715    2.3052 H         1 <0>         0.4362
     28 H10        -1.3244   -1.6331    0.0212 H         1 <0>         0.0948
     29 H11        -1.9698   -0.1268    0.7163 H         1 <0>         0.0596
     30 H12        -1.4620   -2.0586   -2.4897 H         1 <0>         0.1954
     31 H13        -3.5516    3.4756   -1.1988 H         1 <0>         0.1425
     32 H14        -4.7104    5.5455   -1.8470 H         1 <0>         0.1405
     33 H15        -5.5931    5.8050   -4.1284 H         1 <0>         0.1427
     34 H16        -5.3228    3.9983   -5.7752 H         1 <0>         0.1457
     35 H17         3.8645   -0.4128    2.2305 H         1 <0>         0.4415
@<TRIPOS>BOND
     1    1    2 1
     2    1   19 1
     3    1   20 1
     4    1   21 1
     5    2    3 1
     6    2    6 1
     7    3    4 1
     8    3   22 1
     9    3   23 1
    10    4    5 1
    11    4   24 1
    12    4   25 1
    13    5   26 1
    14    5   27 1
    15    5   35 1
    16    6    7 1
    17    6   28 1
    18    6   29 1
    19    7   11 1
    20    7    8 2
    21    8    9 1
    22    8   30 1
    23    9   10 1
    24   10   11 2
    25   10   12 1
    26   12   17 ar
    27   12   13 ar
    28   13   14 ar
    29   13   31 1
    30   14   15 ar
    31   14   32 1
    32   15   16 ar
    33   15   33 1
    34   16   17 ar
    35   16   34 1
    36   17   18 1
@<TRIPOS>MOLECULE
ZINC00110944
   24    25     0     0     0
SMALL
USER_CHARGES
2-[2,6-dichloro-4-(trifluoromethyl)phenyl]-4-methyl-thiazole
@<TRIPOS>ATOM
      1 C1         -6.1868    1.8454    0.0418 C.3       1 <0>        -0.0846
      2 C2         -4.7825    1.2986    0.0317 C.2       1 <0>         0.0488
      3 C3         -4.5751   -0.0447    0.0234 C.2       1 <0>        -0.2070
      4 S1         -2.7877   -0.1026    0.0067 S.3       1 <0>         0.0760
      5 C4         -2.5124    1.6640    0.0229 C.2       1 <0>         0.1023
      6 N1         -3.7577    2.1187    0.0313 N.2       1 <0>        -0.4549
      7 C5         -1.2393    2.4152    0.0210 C.ar      1 <0>         0.0443
      8 C6         -1.2486    3.8116    0.0345 C.ar      1 <0>         0.0012
      9 C7         -0.0554    4.5069    0.0269 C.ar      1 <0>        -0.0551
     10 C8          1.1471    3.8233    0.0112 C.ar      1 <0>        -0.1507
     11 C9          1.1640    2.4401    0.0040 C.ar      1 <0>        -0.0520
     12 C10        -0.0215    1.7317    0.0116 C.ar      1 <0>        -0.0220
     13 Cl1         0.0021   -0.0041    0.0020 Cl        1 <0>        -0.0064
     14 C11         2.4449    4.5892    0.0024 C.3       1 <0>         0.5151
     15 F1          2.8337    4.8328   -1.3192 F         1 <0>        -0.1679
     16 F2          2.2726    5.8066    0.6698 F         1 <0>        -0.1690
     17 F3          3.4334    3.8390    0.6485 F         1 <0>        -0.1695
     18 Cl2        -2.7566    4.6715    0.0530 Cl        1 <0>         0.0018
     19 H1         -6.5306    1.9828   -0.9834 H         1 <0>         0.0749
     20 H2         -6.8457    1.1452    0.5552 H         1 <0>         0.0749
     21 H3         -6.1998    2.8038    0.5608 H         1 <0>         0.0748
     22 H4         -5.2913   -0.8531    0.0223 H         1 <0>         0.1993
     23 H5         -0.0612    5.5868    0.0328 H         1 <0>         0.1626
     24 H6          2.1065    1.9129   -0.0078 H         1 <0>         0.1630
@<TRIPOS>BOND
     1    1    2 1
     2    1   19 1
     3    1   20 1
     4    1   21 1
     5    2    6 1
     6    2    3 2
     7    3    4 1
     8    3   22 1
     9    4    5 1
    10    5    6 2
    11    5    7 1
    12    7   12 ar
    13    7    8 ar
    14    8    9 ar
    15    8   18 1
    16    9   10 ar
    17    9   23 1
    18   10   11 ar
    19   10   14 1
    20   11   12 ar
    21   11   24 1
    22   12   13 1
    23   14   15 1
    24   14   16 1
    25   14   17 1
@<TRIPOS>MOLECULE
ZINC40999615
   30    31     0     0     0
SMALL
USER_CHARGES

@<TRIPOS>ATOM
      1 C1         -0.0187    1.5258    0.0104 C.3       1 <0>        -0.1899
      2 C2          0.0021   -0.0041    0.0020 C.3       1 <0>        -0.0094
      3 N1          0.6897   -0.4778   -1.2066 N.4       1 <0>        -0.5090
      4 C3          0.7096   -1.9467   -1.2147 C.3       1 <0>         0.0786
      5 C4          1.4150   -2.4327   -2.4546 C.2       1 <0>        -0.0121
      6 C5          2.7371   -2.7433   -2.4077 C.2       1 <0>        -0.1878
      7 S1          3.0195   -3.2412   -4.1021 S.3       1 <0>         0.1343
      8 C6          1.3498   -2.9818   -4.6866 C.2       1 <0>         0.1609
      9 N2          0.7518   -2.5617   -3.5804 N.2       1 <0>        -0.4920
     10 C7          0.7866   -3.1865   -6.0376 C.ar      1 <0>        -0.1087
     11 C8         -0.5615   -2.9136   -6.2852 C.ar      1 <0>         0.1799
     12 C9         -1.0809   -3.1076   -7.5513 C.ar      1 <0>        -0.1628
     13 C10        -0.2702   -3.5708   -8.5717 C.ar      1 <0>        -0.0270
     14 C11         1.0649   -3.8435   -8.3344 C.ar      1 <0>        -0.1566
     15 C12         1.6006   -3.6483   -7.0753 C.ar      1 <0>         0.1573
     16 F1          2.9064   -3.9090   -6.8470 F         1 <0>        -0.1157
     17 F2         -1.3550   -2.4619   -5.2894 F         1 <0>        -0.1099
     18 H1          1.0039    1.9031    0.0027 H         1 <0>         0.0803
     19 H2         -0.5459    1.8868   -0.8726 H         1 <0>         0.0806
     20 H3         -0.5289    1.8773    0.9072 H         1 <0>         0.1082
     21 H4          0.5293   -0.3651    0.8851 H         1 <0>         0.1325
     22 H5         -1.0205   -0.3814    0.0098 H         1 <0>         0.1327
     23 H6          0.2017   -0.1436   -2.0240 H         1 <0>         0.4313
     24 H7          1.2368   -2.3077   -0.3316 H         1 <0>         0.1462
     25 H8         -0.3130   -2.3239   -1.2069 H         1 <0>         0.1453
     26 H9          3.4264   -2.7007   -1.5775 H         1 <0>         0.2116
     27 H10        -2.1225   -2.8972   -7.7442 H         1 <0>         0.1574
     28 H11        -0.6819   -3.7207   -9.5589 H         1 <0>         0.1588
     29 H12         1.6914   -4.2056   -9.1361 H         1 <0>         0.1593
     30 H13         1.6363   -0.1286   -1.2138 H         1 <0>         0.4257
@<TRIPOS>BOND
     1    1    2 1
     2    1   18 1
     3    1   19 1
     4    1   20 1
     5    2    3 1
     6    2   21 1
     7    2   22 1
     8    3    4 1
     9    3   23 1
    10    3   30 1
    11    4    5 1
    12    4   24 1
    13    4   25 1
    14    5    9 1
    15    5    6 2
    16    6    7 1
    17    6   26 1
    18    7    8 1
    19    8    9 2
    20    8   10 1
    21   10   15 ar
    22   10   11 ar
    23   11   12 ar
    24   11   17 1
    25   12   13 ar
    26   12   27 1
    27   13   14 ar
    28   13   28 1
    29   14   15 ar
    30   14   29 1
    31   15   16 1
@<TRIPOS>MOLECULE
ZINC70848536
   23    24     0     0     0
SMALL
USER_CHARGES

@<TRIPOS>ATOM
      1 C1         -0.0184    1.5028    0.0103 C.3       1 <0>        -0.1887
      2 C2          0.0021   -0.0041    0.0020 C.2       1 <0>         0.4290
      3 O1          0.0203   -0.6164    1.0496 O.2       1 <0>        -0.4539
      4 C3         -0.0001   -0.7295   -1.2704 C.2       1 <0>        -0.0477
      5 C4          0.0132   -2.1130   -1.2958 C.2       1 <0>        -0.1966
      6 S1          0.0038   -2.4468   -2.9451 S.3       1 <0>         0.1891
      7 C5         -0.0172   -0.7689   -3.5495 C.2       1 <0>         0.0990
      8 N1         -0.0205   -0.0716   -2.4300 N.2       1 <0>        -0.4361
      9 C6         -0.0322   -0.2842   -4.9467 C.ar      1 <0>        -0.0104
     10 C7         -0.0413    1.0858   -5.2124 C.ar      1 <0>        -0.0387
     11 C8         -0.0548    1.5332   -6.5168 C.ar      1 <0>        -0.1381
     12 C9         -0.0593    0.6252   -7.5636 C.ar      1 <0>         0.1301
     13 C10        -0.0508   -0.7373   -7.3057 C.ar      1 <0>        -0.0731
     14 C11        -0.0314   -1.1951   -6.0035 C.ar      1 <0>        -0.0602
     15 Cl1        -0.0571   -1.8688   -8.6222 Cl        1 <0>        -0.0344
     16 F1         -0.0725    1.0688   -8.8396 F         1 <0>        -0.1183
     17 H1          1.0042    1.8801    0.0026 H         1 <0>         0.0983
     18 H2         -0.5455    1.8639   -0.8728 H         1 <0>         0.0934
     19 H3         -0.5286    1.8543    0.9071 H         1 <0>         0.0870
     20 H4          0.0268   -2.8043   -0.4661 H         1 <0>         0.2113
     21 H5         -0.0381    1.7947   -4.3976 H         1 <0>         0.1544
     22 H6         -0.0622    2.5934   -6.7229 H         1 <0>         0.1566
     23 H7         -0.0202   -2.2563   -5.8032 H         1 <0>         0.1483
@<TRIPOS>BOND
     1    1    2 1
     2    1   17 1
     3    1   18 1
     4    1   19 1
     5    2    3 2
     6    2    4 1
     7    4    8 1
     8    4    5 2
     9    5    6 1
    10    5   20 1
    11    6    7 1
    12    7    8 2
    13    7    9 1
    14    9   14 ar
    15    9   10 ar
    16   10   11 ar
    17   10   21 1
    18   11   12 ar
    19   11   22 1
    20   12   13 ar
    21   12   16 1
    22   13   14 ar
    23   13   15 1
    24   14   23 1
@<TRIPOS>MOLECULE
ZINC35163480
   39    40     0     0     0
SMALL
USER_CHARGES

@<TRIPOS>ATOM
      1 C1         -0.0187    1.5258    0.0104 C.3       1 <0>        -0.1586
      2 C2          0.0021   -0.0041    0.0020 C.3       1 <0>        -0.1386
      3 C3          0.7182   -0.4975   -1.2568 C.3       1 <0>         0.0552
      4 C4         -0.0218    0.0093   -2.4963 C.3       1 <0>        -0.1808
      5 C5          2.1536    0.0321   -1.2676 C.3       1 <0>        -0.1802
      6 N1          0.7381   -1.9663   -1.2649 N.4       1 <0>        -0.5023
      7 C6          1.4257   -2.4401   -2.4735 C.3       1 <0>         0.0690
      8 C7          1.4462   -3.9469   -2.4818 C.2       1 <0>        -0.0053
      9 C8          0.4883   -4.6370   -3.1554 C.2       1 <0>        -0.1826
     10 S1          1.0003   -6.3188   -2.8267 S.3       1 <0>         0.0957
     11 C9          2.4306   -5.9201   -1.8305 C.2       1 <0>         0.1834
     12 N2          2.3921   -4.5950   -1.8430 N.2       1 <0>        -0.5070
     13 C10         3.3986   -6.8246   -1.1742 C.ar      1 <0>        -0.0542
     14 C11         4.4540   -6.2982   -0.4280 C.ar      1 <0>        -0.0333
     15 C12         5.3543   -7.1464    0.1822 C.ar      1 <0>        -0.1555
     16 C13         5.2126   -8.5191    0.0548 C.ar      1 <0>         0.1388
     17 C14         4.1664   -9.0470   -0.6851 C.ar      1 <0>        -0.1499
     18 C15         3.2570   -8.2078   -1.2941 C.ar      1 <0>        -0.0535
     19 F1          6.0977   -9.3455    0.6537 F         1 <0>        -0.1241
     20 H1          1.0039    1.9031    0.0027 H         1 <0>         0.0700
     21 H2         -0.5459    1.8868   -0.8726 H         1 <0>         0.0697
     22 H3         -0.5289    1.8773    0.9072 H         1 <0>         0.0768
     23 H4          0.5293   -0.3651    0.8851 H         1 <0>         0.0870
     24 H5         -1.0205   -0.3814    0.0098 H         1 <0>         0.0868
     25 H6         -0.0366    1.0992   -2.4903 H         1 <0>         0.1094
     26 H7          0.4884   -0.3422   -3.3931 H         1 <0>         0.0825
     27 H8         -1.0444   -0.3679   -2.4886 H         1 <0>         0.0828
     28 H9          2.6808   -0.3290   -0.3846 H         1 <0>         0.0831
     29 H10         2.6638   -0.3194   -2.1644 H         1 <0>         0.0826
     30 H11         2.1388    1.1220   -1.2617 H         1 <0>         0.1087
     31 H12         1.2261   -2.3006   -0.4474 H         1 <0>         0.4292
     32 H13         0.8985   -2.0790   -3.3565 H         1 <0>         0.1469
     33 H14         2.4483   -2.0628   -2.4812 H         1 <0>         0.1473
     34 H15        -0.3500   -4.2711   -3.7298 H         1 <0>         0.2102
     35 H16         4.5657   -5.2286   -0.3287 H         1 <0>         0.1453
     36 H17         6.1713   -6.7401    0.7599 H         1 <0>         0.1501
     37 H18         4.0605  -10.1175   -0.7812 H         1 <0>         0.1518
     38 H19         2.4392   -8.6203   -1.8664 H         1 <0>         0.1394
     39 H20        -0.2085   -2.3156   -1.2577 H         1 <0>         0.4241
@<TRIPOS>BOND
     1    1    2 1
     2    1   20 1
     3    1   21 1
     4    1   22 1
     5    2    3 1
     6    2   23 1
     7    2   24 1
     8    3    4 1
     9    3    5 1
    10    3    6 1
    11    4   25 1
    12    4   26 1
    13    4   27 1
    14    5   28 1
    15    5   29 1
    16    5   30 1
    17    6    7 1
    18    6   31 1
    19    6   39 1
    20    7    8 1
    21    7   32 1
    22    7   33 1
    23    8   12 1
    24    8    9 2
    25    9   10 1
    26    9   34 1
    27   10   11 1
    28   11   12 2
    29   11   13 1
    30   13   18 ar
    31   13   14 ar
    32   14   15 ar
    33   14   35 1
    34   15   16 ar
    35   15   36 1
    36   16   17 ar
    37   16   19 1
    38   17   18 ar
    39   17   37 1
    40   18   38 1
@<TRIPOS>MOLECULE
ZINC35163419
   36    37     0     0     0
SMALL
USER_CHARGES

@<TRIPOS>ATOM
      1 C1         -0.0187    1.5258    0.0104 C.3       1 <0>        -0.1748
      2 C2          0.0021   -0.0041    0.0020 C.3       1 <0>        -0.1489
      3 C3          0.7182   -0.4975   -1.2568 C.3       1 <0>         0.0253
      4 H1          1.7103   -0.0491   -1.3098 H         1 <0>         0.1410
      5 C4          0.8493   -2.0210   -1.2049 C.3       1 <0>        -0.1844
      6 N1         -0.0570   -0.1128   -2.4438 N.4       1 <0>        -0.5071
      7 C5          0.6879   -0.4802   -3.6554 C.3       1 <0>         0.0736
      8 C6         -0.1074   -0.0856   -4.8731 C.2       1 <0>        -0.0071
      9 C7          0.1309    1.1042   -5.4856 C.2       1 <0>        -0.1824
     10 S1         -1.0608    1.0343   -6.8174 S.3       1 <0>         0.0965
     11 C8         -1.7445   -0.5678   -6.4139 C.2       1 <0>         0.1836
     12 N2         -1.0276   -0.8927   -5.3471 N.2       1 <0>        -0.5071
     13 C9         -2.8167   -1.3279   -7.0910 C.ar      1 <0>        -0.0545
     14 C10        -3.2072   -2.5752   -6.6015 C.ar      1 <0>        -0.0332
     15 C11        -4.2079   -3.2802   -7.2369 C.ar      1 <0>        -0.1555
     16 C12        -4.8251   -2.7523   -8.3598 C.ar      1 <0>         0.1390
     17 C13        -4.4412   -1.5142   -8.8500 C.ar      1 <0>        -0.1499
     18 C14        -3.4459   -0.7982   -8.2185 C.ar      1 <0>        -0.0534
     19 F1         -5.8042   -3.4473   -8.9790 F         1 <0>        -0.1241
     20 H2          1.0039    1.9031    0.0027 H         1 <0>         0.0728
     21 H3         -0.5459    1.8868   -0.8726 H         1 <0>         0.0498
     22 H4         -0.5289    1.8773    0.9072 H         1 <0>         0.0841
     23 H5          0.5293   -0.3651    0.8851 H         1 <0>         0.1138
     24 H6         -1.0205   -0.3814    0.0098 H         1 <0>         0.0880
     25 H7          1.3594   -2.3725   -2.1017 H         1 <0>         0.0825
     26 H8          1.4245   -2.3064   -0.3242 H         1 <0>         0.1070
     27 H9         -0.1428   -2.4694   -1.1520 H         1 <0>         0.0827
     28 H10        -0.9445   -0.5929   -2.4360 H         1 <0>         0.4287
     29 H11         1.6466    0.0384   -3.6638 H         1 <0>         0.1456
     30 H12         0.8572   -1.5570   -3.6653 H         1 <0>         0.1471
     31 H13         0.8425    1.8776   -5.2368 H         1 <0>         0.2106
     32 H14        -2.7263   -2.9878   -5.7269 H         1 <0>         0.1453
     33 H15        -4.5108   -4.2454   -6.8589 H         1 <0>         0.1501
     34 H16        -4.9254   -1.1073   -9.7254 H         1 <0>         0.1519
     35 H17        -3.1508    0.1688   -8.5985 H         1 <0>         0.1394
     36 H18        -0.2138    0.8839   -2.4346 H         1 <0>         0.4240
@<TRIPOS>BOND
     1    1    2 1
     2    1   20 1
     3    1   21 1
     4    1   22 1
     5    2    3 1
     6    2   23 1
     7    2   24 1
     8    3    4 1
     9    3    5 1
    10    3    6 1
    11    5   25 1
    12    5   26 1
    13    5   27 1
    14    6    7 1
    15    6   28 1
    16    6   36 1
    17    7    8 1
    18    7   29 1
    19    7   30 1
    20    8   12 1
    21    8    9 2
    22    9   10 1
    23    9   31 1
    24   10   11 1
    25   11   12 2
    26   11   13 1
    27   13   18 ar
    28   13   14 ar
    29   14   15 ar
    30   14   32 1
    31   15   16 ar
    32   15   33 1
    33   16   17 ar
    34   16   19 1
    35   17   18 ar
    36   17   34 1
    37   18   35 1
@<TRIPOS>MOLECULE
ZINC35163420
   36    37     0     0     0
SMALL
USER_CHARGES

@<TRIPOS>ATOM
      1 C1         -0.0187    1.5258    0.0104 C.3       1 <0>        -0.1752
      2 C2          0.0021   -0.0041    0.0020 C.3       1 <0>        -0.1483
      3 C3          0.7182   -0.4975   -1.2568 C.3       1 <0>         0.0247
      4 H1          0.2444   -0.0644   -2.1377 H         1 <0>         0.1413
      5 C4          0.6303   -2.0233   -1.3286 C.3       1 <0>        -0.1848
      6 N1          2.1288   -0.0900   -1.2092 N.4       1 <0>        -0.5071
      7 C5          2.7876   -0.4583   -2.4695 C.3       1 <0>         0.0742
      8 C6          4.2346   -0.0402   -2.4207 C.2       1 <0>        -0.0072
      9 C7          5.1886   -0.9322   -2.0440 C.2       1 <0>        -0.1820
     10 S1          6.6565    0.0818   -2.1693 S.3       1 <0>         0.0968
     11 C8          5.8414    1.5791   -2.7082 C.2       1 <0>         0.1835
     12 N2          4.5764    1.1843   -2.7470 N.2       1 <0>        -0.5076
     13 C9          6.4223    2.9002   -3.0294 C.ar      1 <0>        -0.0546
     14 C10         5.5950    3.9501   -3.4310 C.ar      1 <0>        -0.0332
     15 C11         6.1421    5.1804   -3.7295 C.ar      1 <0>        -0.1555
     16 C12         7.5107    5.3751   -3.6317 C.ar      1 <0>         0.1390
     17 C13         8.3367    4.3360   -3.2334 C.ar      1 <0>        -0.1499
     18 C14         7.7993    3.1035   -2.9266 C.ar      1 <0>        -0.0533
     19 F1          8.0416    6.5820   -3.9261 F         1 <0>        -0.1240
     20 H2          1.0039    1.9031    0.0027 H         1 <0>         0.0503
     21 H3         -0.5459    1.8868   -0.8726 H         1 <0>         0.0730
     22 H4         -0.5289    1.8773    0.9072 H         1 <0>         0.0840
     23 H5          0.5293   -0.3651    0.8851 H         1 <0>         0.0878
     24 H6         -1.0205   -0.3814    0.0098 H         1 <0>         0.1137
     25 H7         -0.4163   -2.3257   -1.3639 H         1 <0>         0.1077
     26 H8          1.1405   -2.3748   -2.2254 H         1 <0>         0.0822
     27 H9          1.1041   -2.4564   -0.4477 H         1 <0>         0.0825
     28 H10         2.1860    0.9090   -1.0792 H         1 <0>         0.4292
     29 H11         2.7258   -1.5374   -2.6099 H         1 <0>         0.1469
     30 H12         2.2918    0.0451   -3.2994 H         1 <0>         0.1451
     31 H13         5.0880   -1.9666   -1.7502 H         1 <0>         0.2106
     32 H14         4.5284    3.7992   -3.5082 H         1 <0>         0.1453
     33 H15         5.5028    5.9935   -4.0404 H         1 <0>         0.1502
     34 H16         9.4026    4.4930   -3.1588 H         1 <0>         0.1519
     35 H17         8.4433    2.2957   -2.6116 H         1 <0>         0.1394
     36 H18         2.5878   -0.5560   -0.4410 H         1 <0>         0.4236
@<TRIPOS>BOND
     1    1    2 1
     2    1   20 1
     3    1   21 1
     4    1   22 1
     5    2    3 1
     6    2   23 1
     7    2   24 1
     8    3    4 1
     9    3    5 1
    10    3    6 1
    11    5   25 1
    12    5   26 1
    13    5   27 1
    14    6    7 1
    15    6   28 1
    16    6   36 1
    17    7    8 1
    18    7   29 1
    19    7   30 1
    20    8   12 1
    21    8    9 2
    22    9   10 1
    23    9   31 1
    24   10   11 1
    25   11   12 2
    26   11   13 1
    27   13   18 ar
    28   13   14 ar
    29   14   15 ar
    30   14   32 1
    31   15   16 ar
    32   15   33 1
    33   16   17 ar
    34   16   19 1
    35   17   18 ar
    36   17   34 1
    37   18   35 1
@<TRIPOS>MOLECULE
ZINC71794395
   50    51     0     0     0
SMALL
USER_CHARGES

@<TRIPOS>ATOM
      1 C1          0.7527   -0.8173   -3.4331 C.3       1 <0>        -0.1233
      2 C2          0.7225   -2.2519   -2.9724 C.ar      1 <0>        -0.0577
      3 C3          0.8283   -3.2748   -3.8978 C.ar      1 <0>        -0.1191
      4 C4          0.8018   -4.5903   -3.4825 C.ar      1 <0>        -0.0841
      5 C5          0.6680   -4.8878   -2.1257 C.ar      1 <0>        -0.0340
      6 C6          0.5618   -3.8513   -1.1974 C.ar      1 <0>        -0.0619
      7 C7          0.5950   -2.5401   -1.6253 C.ar      1 <0>        -0.1237
      8 C8          0.6384   -6.2954   -1.6737 C.2       1 <0>         0.1699
      9 N1          0.5146   -6.7827   -0.4471 N.2       1 <0>        -0.4871
     10 C9          0.5079   -8.0760   -0.2252 C.2       1 <0>         0.0613
     11 C10         0.6298   -8.9426   -1.2657 C.2       1 <0>        -0.2080
     12 S1          0.7523   -7.7986   -2.6351 S.3       1 <0>         0.0236
     13 C11         0.3660   -8.5998    1.1807 C.3       1 <0>         0.1321
     14 N2          1.6859   -8.6384    1.8245 N.3       1 <0>        -0.6776
     15 C12         1.5862   -9.1452    3.1997 C.3       1 <0>         0.0706
     16 C13         2.9774   -9.1707    3.8359 C.3       1 <0>        -0.0825
     17 C14         3.8943  -10.0849    3.0207 C.3       1 <0>        -0.1699
     18 C15         3.5556   -7.7543    3.8549 C.3       1 <0>        -0.1668
     19 C16         2.8736   -9.6985    5.2682 C.3       1 <0>        -0.0041
     20 N3          4.2143   -9.7612    5.8653 N.4       1 <0>        -0.3860
     21 C17         4.5563   -8.4530    6.4396 C.3       1 <0>        -0.0735
     22 C18         4.2320  -10.7801    6.9233 C.3       1 <0>        -0.0482
     23 H1          1.7828   -0.4612   -3.4451 H         1 <0>         0.0773
     24 H2          0.3329   -0.7491   -4.4368 H         1 <0>         0.0722
     25 H3          0.1642   -0.2041   -2.7507 H         1 <0>         0.0717
     26 H4          0.9314   -3.0432   -4.9477 H         1 <0>         0.1336
     27 H5          0.8841   -5.3879   -4.2060 H         1 <0>         0.1272
     28 H6          0.4577   -4.0751   -0.1460 H         1 <0>         0.1349
     29 H7          0.5173   -1.7369   -0.9074 H         1 <0>         0.1321
     30 H8          0.6445  -10.0225   -1.2658 H         1 <0>         0.1962
     31 H9         -0.2957   -7.9448    1.7474 H         1 <0>         0.0928
     32 H10        -0.0544   -9.6051    1.1531 H         1 <0>         0.0517
     33 H11         2.3364   -9.1877    1.2830 H         1 <0>         0.3432
     34 H12         0.9330   -8.4939    3.7804 H         1 <0>         0.0867
     35 H13         1.1743  -10.1542    3.1861 H         1 <0>         0.0428
     36 H14         3.8797   -9.7757    1.9756 H         1 <0>         0.0891
     37 H15         4.9117  -10.0160    3.4058 H         1 <0>         0.0571
     38 H16         3.5447  -11.1143    3.1000 H         1 <0>         0.0717
     39 H17         3.0294   -7.1570    4.5996 H         1 <0>         0.0701
     40 H18         4.6152   -7.7977    4.1067 H         1 <0>         0.0573
     41 H19         3.4340   -7.2990    2.8720 H         1 <0>         0.1007
     42 H20         2.2446   -9.0306    5.8568 H         1 <0>         0.1336
     43 H21         2.4339  -10.6957    5.2570 H         1 <0>         0.1307
     44 H22         3.8565   -8.2136    7.2403 H         1 <0>         0.1227
     45 H23         5.5694   -8.4857    6.8403 H         1 <0>         0.1224
     46 H24         4.4966   -7.6891    5.6644 H         1 <0>         0.1403
     47 H25         4.0630  -11.7632    6.4838 H         1 <0>         0.1223
     48 H26         5.2002  -10.7675    7.4238 H         1 <0>         0.1242
     49 H27         3.4459  -10.5658    7.6473 H         1 <0>         0.1228
     50 H28         4.8882  -10.0028    5.1543 H         1 <0>         0.4226
@<TRIPOS>BOND
     1    1    2 1
     2    1   23 1
     3    1   24 1
     4    1   25 1
     5    2    7 ar
     6    2    3 ar
     7    3    4 ar
     8    3   26 1
     9    4    5 ar
    10    4   27 1
    11    5    6 ar
    12    5    8 1
    13    6    7 ar
    14    6   28 1
    15    7   29 1
    16    8   12 1
    17    8    9 2
    18    9   10 1
    19   10   11 2
    20   10   13 1
    21   11   12 1
    22   11   30 1
    23   13   14 1
    24   13   31 1
    25   13   32 1
    26   14   15 1
    27   14   33 1
    28   15   16 1
    29   15   34 1
    30   15   35 1
    31   16   17 1
    32   16   18 1
    33   16   19 1
    34   17   36 1
    35   17   37 1
    36   17   38 1
    37   18   39 1
    38   18   40 1
    39   18   41 1
    40   19   20 1
    41   19   42 1
    42   19   43 1
    43   20   21 1
    44   20   22 1
    45   20   50 1
    46   21   44 1
    47   21   45 1
    48   21   46 1
    49   22   47 1
    50   22   48 1
    51   22   49 1
@<TRIPOS>MOLECULE
ZINC71794395
   51    52     0     0     0
SMALL
USER_CHARGES

@<TRIPOS>ATOM
      1 C1         -0.4915   -1.2163   -3.4454 C.3       1 <0>        -0.1306
      2 C2         -0.3878   -2.6350   -2.9477 C.ar      1 <0>        -0.0381
      3 C3         -0.3110   -3.6785   -3.8528 C.ar      1 <0>        -0.1171
      4 C4         -0.2154   -4.9795   -3.4037 C.ar      1 <0>        -0.0752
      5 C5         -0.1963   -5.2417   -2.0332 C.ar      1 <0>        -0.0597
      6 C6         -0.2741   -4.1846   -1.1256 C.ar      1 <0>        -0.0565
      7 C7         -0.3641   -2.8877   -1.5877 C.ar      1 <0>        -0.1249
      8 C8         -0.0945   -6.6337   -1.5449 C.2       1 <0>         0.1970
      9 N1         -0.0667   -7.0887   -0.3001 N.2       1 <0>        -0.5181
     10 C9          0.0281   -8.3725   -0.0458 C.2       1 <0>        -0.0139
     11 C10         0.1000   -9.2627   -1.0710 C.2       1 <0>        -0.1908
     12 S1          0.0163   -8.1571   -2.4743 S.3       1 <0>         0.1061
     13 C11         0.0579   -8.8594    1.3800 C.3       1 <0>         0.0792
     14 N2          1.4346   -8.8002    1.8890 N.4       1 <0>        -0.5108
     15 C12         1.4636   -9.2748    3.2790 C.3       1 <0>         0.0019
     16 C13         2.8975   -9.2132    3.8091 C.3       1 <0>        -0.1103
     17 C14         3.7982  -10.1011    2.9481 C.3       1 <0>        -0.1893
     18 C15         3.4005   -7.7694    3.7526 C.3       1 <0>        -0.1964
     19 C16         2.9278   -9.7075    5.2567 C.3       1 <0>        -0.0012
     20 N3          4.3088   -9.6755    5.7564 N.4       1 <0>        -0.3863
     21 C17         4.6061   -8.3389    6.2885 C.3       1 <0>        -0.0763
     22 C18         4.4670  -10.6734    6.8227 C.3       1 <0>        -0.0515
     23 H1          0.5085   -0.8008   -3.5697 H         1 <0>         0.0832
     24 H2         -1.0115   -1.2044   -4.4034 H         1 <0>         0.0775
     25 H3         -1.0466   -0.6176   -2.7233 H         1 <0>         0.0762
     26 H4         -0.3262   -3.4743   -4.9132 H         1 <0>         0.1401
     27 H5         -0.1559   -5.7933   -4.1113 H         1 <0>         0.1293
     28 H6         -0.2602   -4.3809   -0.0636 H         1 <0>         0.1325
     29 H7         -0.4199   -2.0684   -0.8863 H         1 <0>         0.1369
     30 H8          0.1810  -10.3394   -1.0451 H         1 <0>         0.2093
     31 H9         -0.5838   -8.2269    1.9934 H         1 <0>         0.1489
     32 H10        -0.3005   -9.8880    1.4203 H         1 <0>         0.1494
     33 H11         2.0286   -9.3858    1.3212 H         1 <0>         0.4262
     34 H12         0.8220   -8.6423    3.8923 H         1 <0>         0.1479
     35 H13         1.1053  -10.3035    3.3192 H         1 <0>         0.1482
     36 H14         3.6859   -9.8245    1.8998 H         1 <0>         0.0814
     37 H15         4.8368   -9.9665    3.2501 H         1 <0>         0.0840
     38 H16         3.5135  -11.1448    3.0810 H         1 <0>         0.0960
     39 H17         2.8838   -7.1748    4.5060 H         1 <0>         0.0970
     40 H18         4.4728   -7.7503    3.9474 H         1 <0>         0.0929
     41 H19         3.2034   -7.3543    2.7642 H         1 <0>         0.0780
     42 H20         2.3029   -9.0621    5.8741 H         1 <0>         0.1451
     43 H21         2.5493  -10.7288    5.2999 H         1 <0>         0.1445
     44 H22         3.9529   -8.1318    7.1361 H         1 <0>         0.1296
     45 H23         5.6459   -8.3002    6.6132 H         1 <0>         0.1316
     46 H24         4.4402   -7.5932    5.5111 H         1 <0>         0.1349
     47 H25         3.7224  -10.4969    7.5989 H         1 <0>         0.1282
     48 H26         4.3304  -11.6724    6.4086 H         1 <0>         0.1272
     49 H27         5.4656  -10.5914    7.2518 H         1 <0>         0.1320
     50 H28         4.9445   -9.8861    5.0016 H         1 <0>         0.4235
     51 H29         1.7663   -7.8481    1.8518 H         1 <0>         0.4312
@<TRIPOS>BOND
     1    1    2 1
     2    1   23 1
     3    1   24 1
     4    1   25 1
     5    2    7 ar
     6    2    3 ar
     7    3    4 ar
     8    3   26 1
     9    4    5 ar
    10    4   27 1
    11    5    6 ar
    12    5    8 1
    13    6    7 ar
    14    6   28 1
    15    7   29 1
    16    8   12 1
    17    8    9 2
    18    9   10 1
    19   10   11 2
    20   10   13 1
    21   11   12 1
    22   11   30 1
    23   13   14 1
    24   13   31 1
    25   13   32 1
    26   14   15 1
    27   14   33 1
    28   14   51 1
    29   15   16 1
    30   15   34 1
    31   15   35 1
    32   16   17 1
    33   16   18 1
    34   16   19 1
    35   17   36 1
    36   17   37 1
    37   17   38 1
    38   18   39 1
    39   18   40 1
    40   18   41 1
    41   19   20 1
    42   19   42 1
    43   19   43 1
    44   20   21 1
    45   20   22 1
    46   20   50 1
    47   21   44 1
    48   21   45 1
    49   21   46 1
    50   22   47 1
    51   22   48 1
    52   22   49 1
@<TRIPOS>MOLECULE
ZINC70842625
   28    29     0     0     0
SMALL
USER_CHARGES

@<TRIPOS>ATOM
      1 C1         -0.0187    1.5258    0.0104 C.3       1 <0>        -0.1771
      2 C2          0.0021   -0.0041    0.0020 C.3       1 <0>         0.1171
      3 H1         -1.0205   -0.3814    0.0098 H         1 <0>         0.1531
      4 C3          0.7309   -0.5033    1.2229 C.2       1 <0>        -0.0068
      5 C4          0.1265   -1.3831    2.0640 C.2       1 <0>        -0.1782
      6 S1          1.4140   -1.6112    3.2842 S.3       1 <0>         0.0940
      7 C5          2.6140   -0.5124    2.5427 C.2       1 <0>         0.1876
      8 N1          1.9528   -0.0931    1.4727 N.2       1 <0>        -0.5167
      9 C6          3.9779   -0.1685    2.9972 C.ar      1 <0>        -0.0549
     10 C7          4.7548    0.7288    2.2625 C.ar      1 <0>        -0.0452
     11 C8          6.0260    1.0474    2.6898 C.ar      1 <0>        -0.1490
     12 C9          6.5342    0.4765    3.8493 C.ar      1 <0>         0.1487
     13 C10         5.7645   -0.4170    4.5827 C.ar      1 <0>        -0.1427
     14 C11         4.4901   -0.7358    4.1653 C.ar      1 <0>        -0.0646
     15 O1          7.7877    0.7926    4.2670 O.3       1 <0>        -0.4949
     16 N2          0.6897   -0.4778   -1.2066 N.4       1 <0>        -0.6340
     17 H2          1.0039    1.9031    0.0027 H         1 <0>         0.0898
     18 H3         -0.5459    1.8868   -0.8726 H         1 <0>         0.0863
     19 H4         -0.5289    1.8773    0.9072 H         1 <0>         0.1036
     20 H5         -0.8585   -1.8228    2.0105 H         1 <0>         0.2103
     21 H6          4.3606    1.1727    1.3602 H         1 <0>         0.1384
     22 H7          6.6277    1.7415    2.1219 H         1 <0>         0.1429
     23 H8          6.1633   -0.8592    5.4837 H         1 <0>         0.1449
     24 H9          3.8903   -1.4271    4.7388 H         1 <0>         0.1337
     25 H10         7.8237    1.5546    4.8613 H         1 <0>         0.4037
     26 H11         1.6363   -0.1286   -1.2138 H         1 <0>         0.4381
     27 H12         0.7033   -1.4867   -1.2121 H         1 <0>         0.4347
     28 H13         0.2017   -0.1436   -2.0240 H         1 <0>         0.4373
@<TRIPOS>BOND
     1    1    2 1
     2    1   17 1
     3    1   18 1
     4    1   19 1
     5    2    3 1
     6    2    4 1
     7    2   16 1
     8    4    8 1
     9    4    5 2
    10    5    6 1
    11    5   20 1
    12    6    7 1
    13    7    8 2
    14    7    9 1
    15    9   14 ar
    16    9   10 ar
    17   10   11 ar
    18   10   21 1
    19   11   12 ar
    20   11   22 1
    21   12   13 ar
    22   12   15 1
    23   13   14 ar
    24   13   23 1
    25   14   24 1
    26   15   25 1
    27   16   26 1
    28   16   27 1
    29   16   28 1
@<TRIPOS>MOLECULE
ZINC40419150
   27    28     0     0     0
SMALL
USER_CHARGES

@<TRIPOS>ATOM
      1 C1         -0.0178    1.4648    0.0101 C.3       1 <0>        -0.0469
      2 N1          0.0021   -0.0041    0.0020 N.4       1 <0>        -0.5086
      3 C2         -1.3761   -0.5125    0.0124 C.3       1 <0>         0.0770
      4 C3         -1.3556   -2.0194    0.0042 C.2       1 <0>        -0.0113
      5 C4         -1.4429   -2.7080    1.1732 C.2       1 <0>        -0.1801
      6 S1         -1.3712   -4.3905    0.5711 S.3       1 <0>         0.1019
      7 C5         -1.2333   -3.9940   -1.1669 C.2       1 <0>         0.1799
      8 N2         -1.2590   -2.6691   -1.1318 N.2       1 <0>        -0.5049
      9 C6         -1.1251   -4.9001   -2.3305 C.ar      1 <0>        -0.0340
     10 C7         -1.0196   -4.3755   -3.6196 C.ar      1 <0>        -0.0505
     11 C8         -0.9185   -5.2258   -4.7013 C.ar      1 <0>        -0.1109
     12 C9         -0.9215   -6.5961   -4.5108 C.ar      1 <0>        -0.0570
     13 C10        -1.0259   -7.1232   -3.2351 C.ar      1 <0>        -0.0916
     14 C11        -1.1223   -6.2826   -2.1439 C.ar      1 <0>        -0.0586
     15 Br1        -1.0291   -8.9977   -2.9858 Br        1 <0>        -0.0222
     16 H1          1.0047    1.8421    0.0024 H         1 <0>         0.1279
     17 H2         -0.5450    1.8259   -0.8730 H         1 <0>         0.1253
     18 H3         -0.5280    1.8163    0.9069 H         1 <0>         0.1252
     19 H4          0.4744   -0.3295   -0.8281 H         1 <0>         0.4331
     20 H5         -1.8863   -0.1610    0.9092 H         1 <0>         0.1463
     21 H6         -1.9033   -0.1515   -0.8706 H         1 <0>         0.1454
     22 H7         -1.5307   -2.3408    2.1851 H         1 <0>         0.2116
     23 H8         -1.0174   -3.3061   -3.7701 H         1 <0>         0.1419
     24 H9         -0.8371   -4.8207   -5.6992 H         1 <0>         0.1473
     25 H10        -0.8425   -7.2574   -5.3610 H         1 <0>         0.1465
     26 H11        -1.1993   -6.6946   -1.1485 H         1 <0>         0.1385
     27 H12         0.4901   -0.3383    0.8195 H         1 <0>         0.4286
@<TRIPOS>BOND
     1    1    2 1
     2    1   16 1
     3    1   17 1
     4    1   18 1
     5    2    3 1
     6    2   19 1
     7    2   27 1
     8    3    4 1
     9    3   20 1
    10    3   21 1
    11    4    8 1
    12    4    5 2
    13    5    6 1
    14    5   22 1
    15    6    7 1
    16    7    8 2
    17    7    9 1
    18    9   14 ar
    19    9   10 ar
    20   10   11 ar
    21   10   23 1
    22   11   12 ar
    23   11   24 1
    24   12   13 ar
    25   12   25 1
    26   13   14 ar
    27   13   15 1
    28   14   26 1
@<TRIPOS>MOLECULE
ZINC70842622
   28    29     0     0     0
SMALL
USER_CHARGES

@<TRIPOS>ATOM
      1 C1         -0.0187    1.5258    0.0104 C.3       1 <0>        -0.1746
      2 C2          0.0021   -0.0041    0.0020 C.3       1 <0>         0.1092
      3 H1         -1.0205   -0.3814    0.0098 H         1 <0>         0.1576
      4 C3          0.7074   -0.4901   -1.2379 C.2       1 <0>         0.0421
      5 C4          1.7598   -1.3434   -1.1318 C.2       1 <0>        -0.2638
      6 S1          2.1786   -1.5670   -2.8561 S.3       1 <0>         0.1009
      7 C5          0.9094   -0.5022   -3.5284 C.2       1 <0>         0.2014
      8 N1          0.3029   -0.0940   -2.4223 N.2       1 <0>        -0.5035
      9 C6          0.6127   -0.1705   -4.9380 C.ar      1 <0>        -0.0592
     10 C7         -0.4343    0.6998   -5.2468 C.ar      1 <0>        -0.0404
     11 C8         -0.7075    1.0069   -6.5624 C.ar      1 <0>        -0.1490
     12 C9          0.0568    0.4515   -7.5802 C.ar      1 <0>         0.1511
     13 C10         1.0989   -0.4150   -7.2772 C.ar      1 <0>        -0.1444
     14 C11         1.3823   -0.7223   -5.9637 C.ar      1 <0>        -0.0630
     15 O1         -0.2158    0.7563   -8.8757 O.3       1 <0>        -0.4945
     16 N2          0.7126   -0.4907    1.1921 N.4       1 <0>        -0.6349
     17 H2          1.0039    1.9031    0.0027 H         1 <0>         0.0805
     18 H3         -0.5459    1.8868   -0.8726 H         1 <0>         0.1149
     19 H4         -0.5289    1.8773    0.9072 H         1 <0>         0.0881
     20 H5          2.2167   -1.7687   -0.2505 H         1 <0>         0.1978
     21 H6         -1.0296    1.1315   -4.4558 H         1 <0>         0.1416
     22 H7         -1.5173    1.6801   -6.8021 H         1 <0>         0.1441
     23 H8          1.6908   -0.8453   -8.0715 H         1 <0>         0.1451
     24 H9          2.1959   -1.3925   -5.7286 H         1 <0>         0.1334
     25 H10         0.2615    1.5294   -9.2068 H         1 <0>         0.4035
     26 H11         0.2403   -0.1653    2.0223 H         1 <0>         0.4439
     27 H12         0.7262   -1.4996    1.1866 H         1 <0>         0.4368
     28 H13         1.6592   -0.1415    1.1850 H         1 <0>         0.4350
@<TRIPOS>BOND
     1    1    2 1
     2    1   17 1
     3    1   18 1
     4    1   19 1
     5    2    3 1
     6    2    4 1
     7    2   16 1
     8    4    8 1
     9    4    5 2
    10    5    6 1
    11    5   20 1
    12    6    7 1
    13    7    8 2
    14    7    9 1
    15    9   14 ar
    16    9   10 ar
    17   10   11 ar
    18   10   21 1
    19   11   12 ar
    20   11   22 1
    21   12   13 ar
    22   12   15 1
    23   13   14 ar
    24   13   23 1
    25   14   24 1
    26   15   25 1
    27   16   26 1
    28   16   27 1
    29   16   28 1
@<TRIPOS>MOLECULE
ZINC54418966
   38    39     0     0     0
SMALL
USER_CHARGES

@<TRIPOS>ATOM
      1 C1         -0.0184    1.5028    0.0103 C.3       1 <0>        -0.1241
      2 C2          0.0021   -0.0041    0.0020 C.ar      1 <0>        -0.0561
      3 C3          0.0057   -0.6862   -1.2016 C.ar      1 <0>        -0.1183
      4 C4          0.0249   -2.0657   -1.2161 C.ar      1 <0>        -0.0831
      5 C5          0.0405   -2.7729   -0.0132 C.ar      1 <0>        -0.0357
      6 C6          0.0368   -2.0788    1.1974 C.ar      1 <0>        -0.0634
      7 C7          0.0229   -0.6992    1.1980 C.ar      1 <0>        -0.1235
      8 C8          0.0606   -4.2514   -0.0214 C.2       1 <0>         0.1698
      9 N1          0.0718   -5.0983    0.9984 N.2       1 <0>        -0.5029
     10 C9          0.0895   -6.3962    0.8061 C.2       1 <0>         0.0540
     11 C10         0.0966   -6.8936   -0.4593 C.2       1 <0>        -0.1855
     12 S1          0.0683   -5.3786   -1.4093 S.3       1 <0>         0.0308
     13 C11         0.1024   -7.3339    1.9857 C.3       1 <0>         0.1297
     14 N2          1.4849   -7.5249    2.4443 N.3       1 <0>        -0.5299
     15 C12         2.0375   -6.2757    2.9848 C.3       1 <0>         0.0139
     16 C13         1.5666   -8.6080    3.4333 C.3       1 <0>         0.0226
     17 C14         3.0349   -8.9451    3.7004 C.3       1 <0>        -0.0100
     18 N3          3.1166  -10.0282    4.6894 N.4       1 <0>        -0.6349
     19 H1          1.0042    1.8801    0.0026 H         1 <0>         0.0780
     20 H2         -0.5455    1.8639   -0.8728 H         1 <0>         0.0727
     21 H3         -0.5286    1.8543    0.9071 H         1 <0>         0.0720
     22 H4         -0.0068   -0.1377   -2.1319 H         1 <0>         0.1343
     23 H5          0.0273   -2.5970   -2.1564 H         1 <0>         0.1278
     24 H6          0.0485   -2.6203    2.1317 H         1 <0>         0.1328
     25 H7          0.0244   -0.1607    2.1343 H         1 <0>         0.1323
     26 H8          0.1111   -7.9193   -0.7971 H         1 <0>         0.1988
     27 H9         -0.4931   -6.9093    2.7939 H         1 <0>         0.0608
     28 H10        -0.3185   -8.2951    1.6905 H         1 <0>         0.0956
     29 H11         1.4318   -5.9456    3.8287 H         1 <0>         0.0391
     30 H12         3.0617   -6.4453    3.3170 H         1 <0>         0.0649
     31 H13         2.0291   -5.5094    2.2097 H         1 <0>         0.0892
     32 H14         1.0924   -8.2890    4.3615 H         1 <0>         0.0595
     33 H15         1.0553   -9.4905    3.0488 H         1 <0>         0.0988
     34 H16         3.5091   -9.2641    2.7722 H         1 <0>         0.1437
     35 H17         3.5462   -8.0626    4.0850 H         1 <0>         0.1338
     36 H18         2.6777   -9.7329    5.5486 H         1 <0>         0.4348
     37 H19         2.6434  -10.8451    4.3334 H         1 <0>         0.4362
     38 H20         4.0850  -10.2505    4.8655 H         1 <0>         0.4416
@<TRIPOS>BOND
     1    1    2 1
     2    1   19 1
     3    1   20 1
     4    1   21 1
     5    2    7 ar
     6    2    3 ar
     7    3    4 ar
     8    3   22 1
     9    4    5 ar
    10    4   23 1
    11    5    6 ar
    12    5    8 1
    13    6    7 ar
    14    6   24 1
    15    7   25 1
    16    8   12 1
    17    8    9 2
    18    9   10 1
    19   10   11 2
    20   10   13 1
    21   11   12 1
    22   11   26 1
    23   13   14 1
    24   13   27 1
    25   13   28 1
    26   14   15 1
    27   14   16 1
    28   15   29 1
    29   15   30 1
    30   15   31 1
    31   16   17 1
    32   16   32 1
    33   16   33 1
    34   17   18 1
    35   17   34 1
    36   17   35 1
    37   18   36 1
    38   18   37 1
    39   18   38 1
@<TRIPOS>MOLECULE
ZINC70840975
   33    34     0     0     0
SMALL
USER_CHARGES

@<TRIPOS>ATOM
      1 C1         -0.0184    1.5028    0.0103 C.3       1 <0>        -0.1282
      2 C2          0.0021   -0.0041    0.0020 C.ar      1 <0>        -0.0445
      3 C3          0.0057   -0.6862   -1.2016 C.ar      1 <0>        -0.1169
      4 C4          0.0249   -2.0657   -1.2161 C.ar      1 <0>        -0.0772
      5 C5          0.0405   -2.7729   -0.0132 C.ar      1 <0>        -0.0506
      6 C6          0.0368   -2.0788    1.1974 C.ar      1 <0>        -0.0599
      7 C7          0.0229   -0.6992    1.1980 C.ar      1 <0>        -0.1239
      8 C8          0.0606   -4.2514   -0.0214 C.2       1 <0>         0.1904
      9 N1          0.0718   -5.0983    0.9984 N.2       1 <0>        -0.5386
     10 C9          0.0895   -6.3962    0.8061 C.2       1 <0>         0.0031
     11 C10         0.0966   -6.8936   -0.4593 C.2       1 <0>        -0.1813
     12 S1          0.0683   -5.3786   -1.4093 S.3       1 <0>         0.0954
     13 C11         0.1024   -7.3339    1.9857 C.3       1 <0>         0.1156
     14 H1          0.7042   -8.2107    1.7464 H         1 <0>         0.1503
     15 C12        -1.3287   -7.7697    2.3065 C.3       1 <0>        -0.1798
     16 N2          0.6781   -6.6480    3.1502 N.4       1 <0>        -0.5005
     17 C13         0.8013   -7.5961    4.2655 C.3       1 <0>        -0.0521
     18 H2          1.0042    1.8801    0.0026 H         1 <0>         0.0817
     19 H3         -0.5455    1.8639   -0.8728 H         1 <0>         0.0755
     20 H4         -0.5286    1.8543    0.9071 H         1 <0>         0.0746
     21 H5         -0.0068   -0.1377   -2.1319 H         1 <0>         0.1381
     22 H6          0.0273   -2.5970   -2.1564 H         1 <0>         0.1294
     23 H7          0.0485   -2.6203    2.1317 H         1 <0>         0.1311
     24 H8          0.0244   -0.1607    2.1343 H         1 <0>         0.1356
     25 H9          0.1111   -7.9193   -0.7971 H         1 <0>         0.2091
     26 H10        -1.7558   -8.2787    1.4424 H         1 <0>         0.1062
     27 H11        -1.3193   -8.4480    3.1597 H         1 <0>         0.0896
     28 H12        -1.9304   -6.8930    2.5459 H         1 <0>         0.0838
     29 H13         1.5903   -6.2886    2.9119 H         1 <0>         0.4315
     30 H14         1.4511   -8.4204    3.9715 H         1 <0>         0.1242
     31 H15         1.2284   -7.0871    5.1296 H         1 <0>         0.1284
     32 H16        -0.1841   -7.9843    4.5230 H         1 <0>         0.1254
     33 H17         0.0766   -5.8849    3.4224 H         1 <0>         0.4346
@<TRIPOS>BOND
     1    1    2 1
     2    1   18 1
     3    1   19 1
     4    1   20 1
     5    2    7 ar
     6    2    3 ar
     7    3    4 ar
     8    3   21 1
     9    4    5 ar
    10    4   22 1
    11    5    6 ar
    12    5    8 1
    13    6    7 ar
    14    6   23 1
    15    7   24 1
    16    8   12 1
    17    8    9 2
    18    9   10 1
    19   10   11 2
    20   10   13 1
    21   11   12 1
    22   11   25 1
    23   13   14 1
    24   13   15 1
    25   13   16 1
    26   15   26 1
    27   15   27 1
    28   15   28 1
    29   16   17 1
    30   16   29 1
    31   16   33 1
    32   17   30 1
    33   17   31 1
    34   17   32 1
@<TRIPOS>MOLECULE
ZINC70840972
   33    34     0     0     0
SMALL
USER_CHARGES

@<TRIPOS>ATOM
      1 C1         -0.0184    1.5028    0.0103 C.3       1 <0>        -0.1282
      2 C2          0.0021   -0.0041    0.0020 C.ar      1 <0>        -0.0445
      3 C3          0.0057   -0.6862   -1.2016 C.ar      1 <0>        -0.1169
      4 C4          0.0249   -2.0657   -1.2161 C.ar      1 <0>        -0.0772
      5 C5          0.0405   -2.7729   -0.0132 C.ar      1 <0>        -0.0507
      6 C6          0.0368   -2.0788    1.1974 C.ar      1 <0>        -0.0599
      7 C7          0.0229   -0.6992    1.1980 C.ar      1 <0>        -0.1239
      8 C8          0.0606   -4.2514   -0.0214 C.2       1 <0>         0.1905
      9 N1          0.0718   -5.0983    0.9984 N.2       1 <0>        -0.5386
     10 C9          0.0895   -6.3962    0.8061 C.2       1 <0>         0.0032
     11 C10         0.0966   -6.8936   -0.4593 C.2       1 <0>        -0.1813
     12 S1          0.0683   -5.3786   -1.4093 S.3       1 <0>         0.0953
     13 C11         0.1024   -7.3339    1.9857 C.3       1 <0>         0.1155
     14 H1         -0.4746   -8.2271    1.7462 H         1 <0>         0.1503
     15 C12         1.5451   -7.7296    2.3069 C.3       1 <0>        -0.1798
     16 N2         -0.4925   -6.6643    3.1501 N.4       1 <0>        -0.5005
     17 C13        -0.5895   -7.6155    4.2653 C.3       1 <0>        -0.0521
     18 H2          1.0042    1.8801    0.0026 H         1 <0>         0.0818
     19 H3         -0.5455    1.8639   -0.8728 H         1 <0>         0.0754
     20 H4         -0.5286    1.8543    0.9071 H         1 <0>         0.0745
     21 H5         -0.0068   -0.1377   -2.1319 H         1 <0>         0.1381
     22 H6          0.0273   -2.5970   -2.1564 H         1 <0>         0.1294
     23 H7          0.0485   -2.6203    2.1317 H         1 <0>         0.1311
     24 H8          0.0244   -0.1607    2.1343 H         1 <0>         0.1356
     25 H9          0.1111   -7.9193   -0.7971 H         1 <0>         0.2091
     26 H10         1.5544   -8.4078    3.1601 H         1 <0>         0.0896
     27 H11         1.9865   -8.2265    1.4430 H         1 <0>         0.1062
     28 H12         2.1221   -6.8364    2.5464 H         1 <0>         0.0838
     29 H13         0.0874   -5.8848    3.4224 H         1 <0>         0.4346
     30 H14         0.4064   -7.9760    4.5230 H         1 <0>         0.1255
     31 H15        -1.0309   -7.1187    5.1293 H         1 <0>         0.1284
     32 H16        -1.2159   -8.4576    3.9712 H         1 <0>         0.1242
     33 H17        -1.4143   -6.3306    2.9115 H         1 <0>         0.4315
@<TRIPOS>BOND
     1    1    2 1
     2    1   18 1
     3    1   19 1
     4    1   20 1
     5    2    7 ar
     6    2    3 ar
     7    3    4 ar
     8    3   21 1
     9    4    5 ar
    10    4   22 1
    11    5    6 ar
    12    5    8 1
    13    6    7 ar
    14    6   23 1
    15    7   24 1
    16    8   12 1
    17    8    9 2
    18    9   10 1
    19   10   11 2
    20   10   13 1
    21   11   12 1
    22   11   25 1
    23   13   14 1
    24   13   15 1
    25   13   16 1
    26   15   26 1
    27   15   27 1
    28   15   28 1
    29   16   17 1
    30   16   29 1
    31   16   33 1
    32   17   30 1
    33   17   31 1
    34   17   32 1
@<TRIPOS>MOLECULE
ZINC87014632
   31    33     0     0     0
SMALL
USER_CHARGES

@<TRIPOS>ATOM
      1 C1         -0.0075    1.3807   -0.1269 C.ar      1 <0>        -0.1211
      2 C2          1.1751    2.0863    0.0078 C.ar      1 <0>        -0.0786
      3 C3          2.3784    1.4147    0.1287 C.ar      1 <0>        -0.1234
      4 C4          2.4062    0.0351    0.1155 C.ar      1 <0>         0.0027
      5 C5          1.2172   -0.6823   -0.0196 C.ar      1 <0>        -0.0423
      6 C6          0.0065    0.0014   -0.1411 C.ar      1 <0>        -0.0786
      7 C7          1.2397   -2.1608   -0.0349 C.2       1 <0>         0.1916
      8 N1          2.0315   -2.9831   -0.7087 N.2       1 <0>        -0.4948
      9 C8          1.9108   -4.2854   -0.6017 C.2       1 <0>        -0.0186
     10 C9          0.9587   -4.8129    0.2131 C.2       1 <0>        -0.1824
     11 S1          0.2115   -3.3207    0.8563 S.3       1 <0>         0.0895
     12 C10         2.8256   -5.1948   -1.3809 C.3       1 <0>         0.0798
     13 N2          2.2820   -5.3967   -2.7306 N.4       1 <0>        -0.6350
     14 C11         3.7180   -0.6950    0.2463 C.3       1 <0>        -0.1203
     15 C12         4.9757    0.1469    0.4708 C.3       1 <0>        -0.1755
     16 C13         4.7366   -0.5253   -0.8827 C.3       1 <0>        -0.1542
     17 H1         -0.9441    1.9110   -0.2167 H         1 <0>         0.1376
     18 H2          1.1587    3.1662    0.0183 H         1 <0>         0.1362
     19 H3          3.2980    1.9712    0.2332 H         1 <0>         0.1370
     20 H4         -0.9172   -0.5482   -0.2459 H         1 <0>         0.1302
     21 H5          0.7220   -5.8464    0.4183 H         1 <0>         0.2092
     22 H6          3.8144   -4.7417   -1.4515 H         1 <0>         0.1463
     23 H7          2.9018   -6.1559   -0.8724 H         1 <0>         0.1473
     24 H8          1.3666   -5.8161   -2.6652 H         1 <0>         0.4336
     25 H9          2.2114   -4.5070   -3.2013 H         1 <0>         0.4386
     26 H10         3.6682   -1.6668    0.7374 H         1 <0>         0.1072
     27 H11         4.8543    1.2288    0.5239 H         1 <0>         0.1032
     28 H12         5.7536   -0.2710    1.1098 H         1 <0>         0.1017
     29 H13         5.3572   -1.3854   -1.1341 H         1 <0>         0.0958
     30 H14         4.4579    0.1145   -1.7200 H         1 <0>         0.0974
     31 H15         2.8945   -6.0056   -3.2523 H         1 <0>         0.4399
@<TRIPOS>BOND
     1    1    6 ar
     2    1    2 ar
     3    1   17 1
     4    2    3 ar
     5    2   18 1
     6    3    4 ar
     7    3   19 1
     8    4    5 ar
     9    4   14 1
    10    5    6 ar
    11    5    7 1
    12    6   20 1
    13    7   11 1
    14    7    8 2
    15    8    9 1
    16    9   10 2
    17    9   12 1
    18   10   11 1
    19   10   21 1
    20   12   13 1
    21   12   22 1
    22   12   23 1
    23   13   24 1
    24   13   25 1
    25   13   31 1
    26   14   16 1
    27   14   15 1
    28   14   26 1
    29   15   16 1
    30   15   27 1
    31   15   28 1
    32   16   29 1
    33   16   30 1
@<TRIPOS>MOLECULE
ZINC40464602
   34    35     0     0     0
SMALL
USER_CHARGES

@<TRIPOS>ATOM
      1 C1         -0.0187    1.5258    0.0104 C.3       1 <0>        -0.1892
      2 C2          0.0021   -0.0041    0.0020 C.3       1 <0>         0.0813
      3 H1         -1.0205   -0.3814    0.0098 H         1 <0>         0.1237
      4 C3          0.7421   -0.5109    1.2415 C.3       1 <0>        -0.0458
      5 N1          0.7620   -1.9797    1.2335 N.4       1 <0>        -0.5040
      6 C4          1.4725   -2.4664    2.4236 C.3       1 <0>         0.0780
      7 C5          1.4929   -3.9732    2.4153 C.2       1 <0>        -0.0087
      8 C6          2.5660   -4.6369    1.9087 C.2       1 <0>        -0.1841
      9 S1          2.0511   -6.3320    2.1536 S.3       1 <0>         0.0937
     10 C7          0.4674   -5.9725    2.9017 C.2       1 <0>         0.1873
     11 N2          0.4774   -4.6470    2.9018 N.2       1 <0>        -0.5101
     12 C8         -0.5714   -6.9032    3.3929 C.ar      1 <0>        -0.0443
     13 C9         -1.7532   -6.4065    3.9442 C.ar      1 <0>        -0.0635
     14 C10        -2.7185   -7.2802    4.4007 C.ar      1 <0>        -0.1204
     15 C11        -2.5164   -8.6461    4.3134 C.ar      1 <0>        -0.0827
     16 C12        -1.3467   -9.1450    3.7684 C.ar      1 <0>        -0.1147
     17 C13        -0.3765   -8.2820    3.3021 C.ar      1 <0>        -0.0839
     18 O1          0.6709   -0.4649   -1.1737 O.3       1 <0>        -0.5575
     19 H2          1.0039    1.9031    0.0027 H         1 <0>         0.0721
     20 H3         -0.5459    1.8868   -0.8726 H         1 <0>         0.0879
     21 H4         -0.5289    1.8773    0.9072 H         1 <0>         0.0804
     22 H5          1.7647   -0.1336    1.2338 H         1 <0>         0.1364
     23 H6          0.2319   -0.1594    2.1383 H         1 <0>         0.1439
     24 H7         -0.1846   -2.3290    1.2406 H         1 <0>         0.4319
     25 H8          2.4951   -2.0891    2.4158 H         1 <0>         0.1450
     26 H9          0.9623   -2.1149    3.3204 H         1 <0>         0.1449
     27 H10         3.4767   -4.2482    1.4777 H         1 <0>         0.2099
     28 H11        -1.9118   -5.3405    4.0135 H         1 <0>         0.1341
     29 H12        -3.6336   -6.8971    4.8276 H         1 <0>         0.1365
     30 H13        -3.2749   -9.3259    4.6725 H         1 <0>         0.1359
     31 H14        -1.1949  -10.2123    3.7034 H         1 <0>         0.1383
     32 H15         0.5340   -8.6727    2.8721 H         1 <0>         0.1285
     33 H16         1.5879   -0.1667   -1.2470 H         1 <0>         0.3895
     34 H17         1.2343   -2.3051    0.4033 H         1 <0>         0.4298
@<TRIPOS>BOND
     1    1    2 1
     2    1   19 1
     3    1   20 1
     4    1   21 1
     5    2    3 1
     6    2    4 1
     7    2   18 1
     8    4    5 1
     9    4   22 1
    10    4   23 1
    11    5    6 1
    12    5   24 1
    13    5   34 1
    14    6    7 1
    15    6   25 1
    16    6   26 1
    17    7   11 1
    18    7    8 2
    19    8    9 1
    20    8   27 1
    21    9   10 1
    22   10   11 2
    23   10   12 1
    24   12   17 ar
    25   12   13 ar
    26   13   14 ar
    27   13   28 1
    28   14   15 ar
    29   14   29 1
    30   15   16 ar
    31   15   30 1
    32   16   17 ar
    33   16   31 1
    34   17   32 1
    35   18   33 1
@<TRIPOS>MOLECULE
ZINC40464601
   34    35     0     0     0
SMALL
USER_CHARGES

@<TRIPOS>ATOM
      1 C1         -0.0187    1.5258    0.0104 C.3       1 <0>        -0.1894
      2 C2          0.0021   -0.0041    0.0020 C.3       1 <0>         0.0816
      3 H1          0.5123   -0.3556   -0.8948 H         1 <0>         0.1224
      4 C3          0.7421   -0.5109    1.2415 C.3       1 <0>        -0.0459
      5 N1          0.8668   -1.9730    1.1737 N.4       1 <0>        -0.5046
      6 C4          1.5773   -2.4597    2.3638 C.3       1 <0>         0.0779
      7 C5          1.7052   -3.9596    2.2941 C.2       1 <0>        -0.0085
      8 C6          2.8362   -4.5241    1.7935 C.2       1 <0>        -0.1850
      9 S1          2.4368   -6.2601    1.9527 S.3       1 <0>         0.0931
     10 C7          0.8117   -6.0450    2.6665 C.2       1 <0>         0.1878
     11 N2          0.7273   -4.7232    2.7215 N.2       1 <0>        -0.5098
     12 C8         -0.1712   -7.0664    3.0873 C.ar      1 <0>        -0.0445
     13 C9         -1.4001   -6.6779    3.6224 C.ar      1 <0>        -0.0632
     14 C10        -2.3128   -7.6359    4.0131 C.ar      1 <0>        -0.1204
     15 C11        -2.0116   -8.9793    3.8758 C.ar      1 <0>        -0.0826
     16 C12        -0.7949   -9.3711    3.3465 C.ar      1 <0>        -0.1148
     17 C13         0.1238   -8.4230    2.9458 C.ar      1 <0>        -0.0839
     18 O1         -1.3386   -0.4987    0.0122 O.3       1 <0>        -0.5569
     19 H2          1.0039    1.9031    0.0027 H         1 <0>         0.0799
     20 H3         -0.5459    1.8868   -0.8726 H         1 <0>         0.0878
     21 H4         -0.5289    1.8773    0.9072 H         1 <0>         0.0725
     22 H5          1.7350   -0.0630    1.2804 H         1 <0>         0.1435
     23 H6          0.1838   -0.2350    2.1361 H         1 <0>         0.1367
     24 H7         -0.0524   -2.3877    1.1377 H         1 <0>         0.4352
     25 H8          2.5702   -2.0117    2.4026 H         1 <0>         0.1456
     26 H9          1.0190   -2.1838    3.2584 H         1 <0>         0.1443
     27 H10         3.7285   -4.0543    1.4067 H         1 <0>         0.2101
     28 H11        -1.6360   -5.6296    3.7307 H         1 <0>         0.1342
     29 H12        -3.2642   -7.3366    4.4273 H         1 <0>         0.1366
     30 H13        -2.7294   -9.7253    4.1835 H         1 <0>         0.1359
     31 H14        -0.5657  -10.4213    3.2423 H         1 <0>         0.1383
     32 H15         1.0712   -8.7301    2.5279 H         1 <0>         0.1285
     33 H16        -1.8531   -0.2245    0.7836 H         1 <0>         0.3908
     34 H17         1.3836   -2.2284    0.3456 H         1 <0>         0.4267
@<TRIPOS>BOND
     1    1    2 1
     2    1   19 1
     3    1   20 1
     4    1   21 1
     5    2    3 1
     6    2    4 1
     7    2   18 1
     8    4    5 1
     9    4   22 1
    10    4   23 1
    11    5    6 1
    12    5   24 1
    13    5   34 1
    14    6    7 1
    15    6   25 1
    16    6   26 1
    17    7   11 1
    18    7    8 2
    19    8    9 1
    20    8   27 1
    21    9   10 1
    22   10   11 2
    23   10   12 1
    24   12   17 ar
    25   12   13 ar
    26   13   14 ar
    27   13   28 1
    28   14   15 ar
    29   14   29 1
    30   15   16 ar
    31   15   30 1
    32   16   17 ar
    33   16   31 1
    34   17   32 1
    35   18   33 1
@<TRIPOS>MOLECULE
ZINC49633651
   37    38     0     0     0
SMALL
USER_CHARGES

@<TRIPOS>ATOM
      1 C1          0.2203    1.4116   -0.3889 C.3       1 <0>        -0.1278
      2 C2          0.2672   -0.0944   -0.3606 C.ar      1 <0>        -0.0449
      3 C3          0.4110   -0.8014   -1.5411 C.ar      1 <0>        -0.1181
      4 C4          0.4551   -2.1802   -1.5220 C.ar      1 <0>        -0.0778
      5 C5          0.3543   -2.8617   -0.3085 C.ar      1 <0>        -0.0511
      6 C6          0.2093   -2.1427    0.8787 C.ar      1 <0>        -0.0578
      7 C7          0.1719   -0.7639    0.8464 C.ar      1 <0>        -0.1239
      8 C8          0.4003   -4.3394   -0.2807 C.2       1 <0>         0.1879
      9 N1          0.3169   -5.1644    0.7536 N.2       1 <0>        -0.5099
     10 C9          0.3772   -6.4655    0.5939 C.2       1 <0>        -0.0013
     11 C10         0.5279   -6.9889   -0.6518 C.2       1 <0>        -0.1843
     12 S1          0.5755   -5.4949   -1.6338 S.3       1 <0>         0.0871
     13 C11         0.2800   -7.3780    1.7893 C.3       1 <0>         0.0710
     14 N2          1.6086   -7.5325    2.3967 N.4       1 <0>        -0.3825
     15 C12         2.0564   -6.2392    2.9304 C.3       1 <0>        -0.0419
     16 C13         1.5372   -8.5140    3.4873 C.3       1 <0>        -0.0052
     17 C14         1.2273   -9.8965    2.9098 C.3       1 <0>         0.0437
     18 O1          2.3118  -10.3209    2.0818 O.3       1 <0>        -0.5801
     19 H1          1.2312    1.8084   -0.2964 H         1 <0>         0.0813
     20 H2         -0.2156    1.7438   -1.3311 H         1 <0>         0.0751
     21 H3         -0.3888    1.7718    0.4402 H         1 <0>         0.0745
     22 H4          0.4886   -0.2727   -2.4797 H         1 <0>         0.1375
     23 H5          0.5671   -2.7309   -2.4443 H         1 <0>         0.1286
     24 H6          0.1303   -2.6643    1.8211 H         1 <0>         0.1342
     25 H7          0.0642   -0.2061    1.7649 H         1 <0>         0.1357
     26 H8          0.5959   -8.0210   -0.9627 H         1 <0>         0.2084
     27 H9         -0.4057   -6.9482    2.5196 H         1 <0>         0.1430
     28 H10        -0.0905   -8.3530    1.4729 H         1 <0>         0.1411
     29 H11         2.9912   -6.3746    3.4742 H         1 <0>         0.1212
     30 H12         2.2124   -5.5411    2.1079 H         1 <0>         0.1216
     31 H13         1.2978   -5.8422    3.6049 H         1 <0>         0.1243
     32 H14         2.4925   -8.5450    4.0113 H         1 <0>         0.1401
     33 H15         0.7498   -8.2264    4.1840 H         1 <0>         0.1440
     34 H16         1.0916  -10.6083    3.7240 H         1 <0>         0.0964
     35 H17         0.3148   -9.8458    2.3157 H         1 <0>         0.0712
     36 H18         2.1835  -11.1916    1.6812 H         1 <0>         0.4090
     37 H19         2.2625   -7.8527    1.6982 H         1 <0>         0.4300
@<TRIPOS>BOND
     1    1    2 1
     2    1   19 1
     3    1   20 1
     4    1   21 1
     5    2    7 ar
     6    2    3 ar
     7    3    4 ar
     8    3   22 1
     9    4    5 ar
    10    4   23 1
    11    5    6 ar
    12    5    8 1
    13    6    7 ar
    14    6   24 1
    15    7   25 1
    16    8   12 1
    17    8    9 2
    18    9   10 1
    19   10   11 2
    20   10   13 1
    21   11   12 1
    22   11   26 1
    23   13   14 1
    24   13   27 1
    25   13   28 1
    26   14   15 1
    27   14   16 1
    28   14   37 1
    29   15   29 1
    30   15   30 1
    31   15   31 1
    32   16   17 1
    33   16   32 1
    34   16   33 1
    35   17   18 1
    36   17   34 1
    37   17   35 1
    38   18   36 1
@<TRIPOS>MOLECULE
ZINC49753477
   41    42     0     0     0
SMALL
USER_CHARGES

@<TRIPOS>ATOM
      1 C1         -0.4812    1.5505    0.8747 C.3       1 <0>        -0.1274
      2 C2         -0.4161    0.0523    0.7257 C.ar      1 <0>        -0.0458
      3 C3         -0.4490   -0.5165   -0.5350 C.ar      1 <0>        -0.1178
      4 C4         -0.3893   -1.8874   -0.6784 C.ar      1 <0>        -0.0780
      5 C5         -0.2955   -2.7006    0.4518 C.ar      1 <0>        -0.0494
      6 C6         -0.2627   -2.1206    1.7206 C.ar      1 <0>        -0.0586
      7 C7         -0.3178   -0.7481    1.8499 C.ar      1 <0>        -0.1238
      8 C8         -0.2315   -4.1707    0.3055 C.2       1 <0>         0.1868
      9 N1         -0.1467   -5.1063    1.2408 N.2       1 <0>        -0.5110
     10 C9         -0.0993   -6.3799    0.9282 C.2       1 <0>        -0.0006
     11 C10        -0.1373   -6.7590   -0.3769 C.2       1 <0>        -0.1814
     12 S1         -0.2558   -5.1654   -1.1801 S.3       1 <0>         0.0894
     13 C11        -0.0024   -7.4205    2.0139 C.3       1 <0>         0.0705
     14 N2          1.4053   -7.6049    2.3912 N.4       1 <0>        -0.3791
     15 C12         1.9141   -6.3701    3.0031 C.3       1 <0>        -0.0079
     16 C13         3.4111   -6.5185    3.2822 C.3       1 <0>         0.0471
     17 O1          4.1158   -6.6458    2.0456 O.3       1 <0>        -0.5770
     18 C14         1.5136   -8.7091    3.3539 C.3       1 <0>        -0.0119
     19 C15         1.1203  -10.0209    2.6717 C.3       1 <0>         0.0456
     20 O2          2.0466  -10.3084    1.6222 O.3       1 <0>        -0.5775
     21 H1          0.5281    1.9616    0.8567 H         1 <0>         0.0810
     22 H2         -1.0602    1.9725    0.0533 H         1 <0>         0.0749
     23 H3         -0.9586    1.8009    1.8221 H         1 <0>         0.0743
     24 H4         -0.5220    0.1139   -1.4089 H         1 <0>         0.1373
     25 H5         -0.4154   -2.3303   -1.6631 H         1 <0>         0.1287
     26 H6         -0.1905   -2.7445    2.5992 H         1 <0>         0.1337
     27 H7         -0.2881   -0.2977    2.8311 H         1 <0>         0.1354
     28 H8         -0.1080   -7.7485   -0.8088 H         1 <0>         0.2083
     29 H9         -0.5716   -7.0922    2.8836 H         1 <0>         0.1428
     30 H10        -0.4076   -8.3645    1.6496 H         1 <0>         0.1423
     31 H11         1.7524   -5.5340    2.3227 H         1 <0>         0.1433
     32 H12         1.3867   -6.1843    3.9388 H         1 <0>         0.1419
     33 H13         3.7701   -5.6386    3.8161 H         1 <0>         0.0932
     34 H14         3.5810   -7.4069    3.8904 H         1 <0>         0.0698
     35 H15         5.0725   -6.7438    2.1464 H         1 <0>         0.4065
     36 H16         2.5407   -8.7795    3.7121 H         1 <0>         0.1388
     37 H17         0.8470   -8.5236    4.1962 H         1 <0>         0.1441
     38 H18         1.1367  -10.8296    3.4024 H         1 <0>         0.0960
     39 H19         0.1172   -9.9276    2.2556 H         1 <0>         0.0714
     40 H20         1.8582  -11.1280    1.1449 H         1 <0>         0.4079
     41 H21         1.9484   -7.8212    1.5688 H         1 <0>         0.4362
@<TRIPOS>BOND
     1    1    2 1
     2    1   21 1
     3    1   22 1
     4    1   23 1
     5    2    7 ar
     6    2    3 ar
     7    3    4 ar
     8    3   24 1
     9    4    5 ar
    10    4   25 1
    11    5    6 ar
    12    5    8 1
    13    6    7 ar
    14    6   26 1
    15    7   27 1
    16    8   12 1
    17    8    9 2
    18    9   10 1
    19   10   11 2
    20   10   13 1
    21   11   12 1
    22   11   28 1
    23   13   14 1
    24   13   29 1
    25   13   30 1
    26   14   15 1
    27   14   18 1
    28   14   41 1
    29   15   16 1
    30   15   31 1
    31   15   32 1
    32   16   17 1
    33   16   33 1
    34   16   34 1
    35   17   35 1
    36   18   19 1
    37   18   36 1
    38   18   37 1
    39   19   20 1
    40   19   38 1
    41   19   39 1
    42   20   40 1
@<TRIPOS>MOLECULE
ZINC49754424
   40    41     0     0     0
SMALL
USER_CHARGES

@<TRIPOS>ATOM
      1 C1         -0.1840    1.3441   -0.0444 C.3       1 <0>        -0.1854
      2 C2         -0.0629   -0.1806   -0.0036 C.3       1 <0>        -0.0128
      3 N1          0.7833   -0.5744    1.1307 N.4       1 <0>        -0.3814
      4 C3          0.1113   -0.2219    2.3885 C.3       1 <0>        -0.0100
      5 C4          1.0526   -0.4946    3.5635 C.3       1 <0>         0.0450
      6 O1          2.1959    0.3570    3.4654 O.3       1 <0>        -0.5793
      7 C5          1.0146   -2.0245    1.0888 C.3       1 <0>         0.0709
      8 C6          1.8118   -2.3706   -0.1423 C.2       1 <0>        -0.0008
      9 C7          3.1641   -2.4899   -0.0667 C.2       1 <0>        -0.1839
     10 S1          3.5548   -2.8960   -1.7640 S.3       1 <0>         0.0879
     11 C8          1.8792   -2.8627   -2.3871 C.2       1 <0>         0.1879
     12 N2          1.2015   -2.5627   -1.2880 N.2       1 <0>        -0.5108
     13 C9          1.3827   -3.1088   -3.7580 C.ar      1 <0>        -0.0510
     14 C10         0.0173   -3.0252   -4.0343 C.ar      1 <0>        -0.0580
     15 C11        -0.4395   -3.2561   -5.3155 C.ar      1 <0>        -0.1237
     16 C12         0.4527   -3.5703   -6.3251 C.ar      1 <0>        -0.0449
     17 C13         1.8075   -3.6551   -6.0577 C.ar      1 <0>        -0.1180
     18 C14         2.2779   -3.4200   -4.7822 C.ar      1 <0>        -0.0777
     19 C15        -0.0534   -3.8216   -7.7222 C.3       1 <0>        -0.1278
     20 H1          0.8117    1.7876   -0.0529 H         1 <0>         0.0777
     21 H2         -0.7221    1.6419   -0.9443 H         1 <0>         0.1048
     22 H3         -0.7278    1.6890    0.8350 H         1 <0>         0.0797
     23 H4         -1.0533   -0.6207    0.1118 H         1 <0>         0.1296
     24 H5          0.3860   -0.5343   -0.9318 H         1 <0>         0.1349
     25 H6         -0.1554    0.8349    2.3743 H         1 <0>         0.1412
     26 H7         -0.7913   -0.8229    2.4991 H         1 <0>         0.1437
     27 H8          0.5314   -0.2966    4.5001 H         1 <0>         0.0962
     28 H9          1.3722   -1.5364    3.5388 H         1 <0>         0.0710
     29 H10         2.8723    0.1860    4.1350 H         1 <0>         0.4080
     30 H11         1.5671   -2.3301    1.9773 H         1 <0>         0.1413
     31 H12         0.0571   -2.5445    1.0597 H         1 <0>         0.1427
     32 H13         3.8204   -2.3718    0.7828 H         1 <0>         0.2085
     33 H14        -0.6802   -2.7807   -3.2468 H         1 <0>         0.1341
     34 H15        -1.4959   -3.1917   -5.5306 H         1 <0>         0.1357
     35 H16         2.4987   -3.9012   -6.8502 H         1 <0>         0.1375
     36 H17         3.3362   -3.4815   -4.5758 H         1 <0>         0.1286
     37 H18        -0.0703   -2.8835   -8.2768 H         1 <0>         0.0813
     38 H19         0.6052   -4.5295   -8.2254 H         1 <0>         0.0751
     39 H20        -1.0614   -4.2338   -7.6747 H         1 <0>         0.0745
     40 H21         1.6672   -0.0911    1.0747 H         1 <0>         0.4276
@<TRIPOS>BOND
     1    1    2 1
     2    1   20 1
     3    1   21 1
     4    1   22 1
     5    2    3 1
     6    2   23 1
     7    2   24 1
     8    3    4 1
     9    3    7 1
    10    3   40 1
    11    4    5 1
    12    4   25 1
    13    4   26 1
    14    5    6 1
    15    5   27 1
    16    5   28 1
    17    6   29 1
    18    7    8 1
    19    7   30 1
    20    7   31 1
    21    8   12 1
    22    8    9 2
    23    9   10 1
    24    9   32 1
    25   10   11 1
    26   11   12 2
    27   11   13 1
    28   13   18 ar
    29   13   14 ar
    30   14   15 ar
    31   14   33 1
    32   15   16 ar
    33   15   34 1
    34   16   17 ar
    35   16   19 1
    36   17   18 ar
    37   17   35 1
    38   18   36 1
    39   19   37 1
    40   19   38 1
    41   19   39 1
@<TRIPOS>MOLECULE
ZINC62606385
   21    22     0     0     0
SMALL
USER_CHARGES

@<TRIPOS>ATOM
      1 C1         -0.0167    1.3792    0.0096 C.ar      1 <0>        -0.1140
      2 C2          1.1661    2.0896    0.0021 C.ar      1 <0>        -0.0604
      3 C3          2.3851    1.4109   -0.0132 C.ar      1 <0>        -0.0413
      4 C4          2.3996    0.0135   -0.0208 C.ar      1 <0>         0.1570
      5 C5          1.2064   -0.6861   -0.0132 C.ar      1 <0>        -0.0797
      6 C6          0.0021   -0.0041    0.0020 C.ar      1 <0>        -0.0616
      7 Cl1         1.2194   -2.4221   -0.0227 Cl        1 <0>        -0.0357
      8 F1          3.5752   -0.6520   -0.0361 F         1 <0>        -0.1003
      9 C7          3.6557    2.1666   -0.0217 C.2       1 <0>         0.1452
     10 N1          4.9024    1.7162   -0.0416 N.2       1 <0>        -0.4706
     11 C8          5.9243    2.5399   -0.0468 C.2       1 <0>         0.0399
     12 C9          5.7124    3.8825   -0.0317 C.2       1 <0>        -0.1738
     13 S1          3.9247    3.9342   -0.0160 S.3       1 <0>         0.0472
     14 C10         7.3304    1.9980   -0.0691 C.3       1 <0>         0.0353
     15 Cl2         7.8704    1.7979   -1.7776 Cl        1 <0>        -0.1644
     16 H1         -0.9601    1.9047    0.0260 H         1 <0>         0.1511
     17 H2          1.1485    3.1694    0.0078 H         1 <0>         0.1441
     18 H3         -0.9272   -0.5543    0.0083 H         1 <0>         0.1516
     19 H4          6.4257    4.6933   -0.0332 H         1 <0>         0.2066
     20 H5          7.9957    2.6930    0.4432 H         1 <0>         0.1126
     21 H6          7.3555    1.0322    0.4355 H         1 <0>         0.1114
@<TRIPOS>BOND
     1    1    6 ar
     2    1    2 ar
     3    1   16 1
     4    2    3 ar
     5    2   17 1
     6    3    4 ar
     7    3    9 1
     8    4    5 ar
     9    4    8 1
    10    5    6 ar
    11    5    7 1
    12    6   18 1
    13    9   13 1
    14    9   10 2
    15   10   11 1
    16   11   12 2
    17   11   14 1
    18   12   13 1
    19   12   19 1
    20   14   15 1
    21   14   20 1
    22   14   21 1
@<TRIPOS>MOLECULE
ZINC00159231
   37    39     0     0     0
SMALL
USER_CHARGES
2-(4-chlorophenyl)-4-[(1-methyl-2,3,4,5-tetrahydropyrrol-1-yl)methyl]thiazole
@<TRIPOS>ATOM
      1 C1         -0.0127    1.0858    0.0080 C.3       1 <0>        -0.0470
      2 N1         -0.7003    1.5596    1.2166 N.4       1 <0>        -0.2689
      3 C2         -0.7044    3.0338    1.2395 C.3       1 <0>        -0.0202
      4 C3          0.0632    3.4736    2.5039 C.3       1 <0>        -0.1386
      5 C4          0.9460    2.2386    2.8241 C.3       1 <0>        -0.1409
      6 C5          0.0114    1.0721    2.4173 C.3       1 <0>        -0.0096
      7 C6         -2.0831    1.0640    1.2264 C.3       1 <0>         0.0765
      8 C7         -2.8022    1.5573   -0.0027 C.2       1 <0>         0.0051
      9 C8         -2.8685    0.7752   -1.1127 C.2       1 <0>        -0.1858
     10 S1         -3.8065    1.8341   -2.2069 S.3       1 <0>         0.0965
     11 C9         -3.9995    3.2028   -1.0727 C.2       1 <0>         0.1797
     12 N2         -3.3610    2.7448   -0.0051 N.2       1 <0>        -0.5060
     13 C10        -4.6864    4.4969   -1.2719 C.ar      1 <0>        -0.0373
     14 C11        -4.7248    5.4357   -0.2400 C.ar      1 <0>        -0.0515
     15 C12        -5.3621    6.6436   -0.4336 C.ar      1 <0>        -0.1110
     16 C13        -5.9728    6.9209   -1.6451 C.ar      1 <0>        -0.0062
     17 C14        -5.9429    5.9910   -2.6707 C.ar      1 <0>        -0.1058
     18 C15        -5.3037    4.7820   -2.4906 C.ar      1 <0>        -0.0711
     19 Cl1        -6.7797    8.4402   -1.8788 Cl        1 <0>        -0.0434
     20 H1          0.0021   -0.0041    0.0020 H         1 <0>         0.1217
     21 H2          1.0099    1.4631    0.0003 H         1 <0>         0.1225
     22 H3         -0.5399    1.4469   -0.8751 H         1 <0>         0.1154
     23 H4         -0.2062    3.4199    0.3502 H         1 <0>         0.1215
     24 H5         -1.7298    3.4011    1.2817 H         1 <0>         0.1469
     25 H6         -0.6270    3.6766    3.3227 H         1 <0>         0.0986
     26 H7          0.6823    4.3461    2.2950 H         1 <0>         0.1101
     27 H8          1.1855    2.1948    3.8865 H         1 <0>         0.1170
     28 H9          1.8536    2.2404    2.2205 H         1 <0>         0.0963
     29 H10        -0.6971    0.8569    3.2172 H         1 <0>         0.1324
     30 H11         0.5957    0.1837    2.1776 H         1 <0>         0.1340
     31 H12        -2.0784   -0.0260    1.2316 H         1 <0>         0.1404
     32 H13        -2.5938    1.4294    2.1173 H         1 <0>         0.1406
     33 H14        -2.4672   -0.2125   -1.2853 H         1 <0>         0.2095
     34 H15        -4.2527    5.2187    0.7068 H         1 <0>         0.1437
     35 H16        -5.3890    7.3726    0.3628 H         1 <0>         0.1475
     36 H17        -6.4212    6.2126   -3.6133 H         1 <0>         0.1492
     37 H18        -5.2812    4.0574   -3.2911 H         1 <0>         0.1383
@<TRIPOS>BOND
     1    1    2 1
     2    1   20 1
     3    1   21 1
     4    1   22 1
     5    2    6 1
     6    2    3 1
     7    2    7 1
     8    3    4 1
     9    3   23 1
    10    3   24 1
    11    4    5 1
    12    4   25 1
    13    4   26 1
    14    5    6 1
    15    5   27 1
    16    5   28 1
    17    6   29 1
    18    6   30 1
    19    7    8 1
    20    7   31 1
    21    7   32 1
    22    8   12 1
    23    8    9 2
    24    9   10 1
    25    9   33 1
    26   10   11 1
    27   11   12 2
    28   11   13 1
    29   13   18 ar
    30   13   14 ar
    31   14   15 ar
    32   14   34 1
    33   15   16 ar
    34   15   35 1
    35   16   17 ar
    36   16   19 1
    37   17   18 ar
    38   17   36 1
    39   18   37 1
@<TRIPOS>MOLECULE
ZINC06579677
   40    42     0     0     0
SMALL
USER_CHARGES
N-benzyl-N-[[2-(4-chlorophenyl)thiazol-4-yl]methyl]methanamine
@<TRIPOS>ATOM
      1 C1         -2.2161    0.3293    2.1806 C.3       1 <0>        -0.0509
      2 C2         -4.4109    1.0229    1.4293 C.3       1 <0>         0.0495
      3 C3         -4.9316    1.1994    2.8324 C.ar      1 <0>        -0.1634
      4 C4         -4.9353    0.1298    3.7080 C.ar      1 <0>        -0.0957
      5 C5         -5.4085    0.2930    4.9965 C.ar      1 <0>        -0.1148
      6 C6         -5.8873    1.5233    5.4064 C.ar      1 <0>        -0.0837
      7 C7         -5.8890    2.5915    4.5290 C.ar      1 <0>        -0.1134
      8 C8         -5.4109    2.4296    3.2421 C.ar      1 <0>        -0.0931
      9 C9         -2.4770    1.3886    0.0190 C.3       1 <0>         0.0794
     10 C10        -1.0704    1.9296    0.0166 C.2       1 <0>        -0.0022
     11 C11        -0.0126    1.0758    0.0080 C.2       1 <0>        -0.1838
     12 S1          1.3481    2.2365    0.0012 S.3       1 <0>         0.0962
     13 C12         0.3621    3.7279    0.0180 C.2       1 <0>         0.1804
     14 N1         -0.8647    3.2257    0.0268 N.2       1 <0>        -0.5054
     15 C13         0.7977    5.1409    0.0215 C.ar      1 <0>        -0.0376
     16 C14        -0.1493    6.1659    0.0301 C.ar      1 <0>        -0.0508
     17 C15         0.2631    7.4822    0.0382 C.ar      1 <0>        -0.1112
     18 C16         1.6137    7.7874    0.0272 C.ar      1 <0>        -0.0062
     19 C17         2.5580    6.7747    0.0133 C.ar      1 <0>        -0.1061
     20 C18         2.1575    5.4547    0.0104 C.ar      1 <0>        -0.0713
     21 Cl1         2.1252    9.4464    0.0301 Cl        1 <0>        -0.0438
     22 H1         -1.1631    0.6105    2.2007 H         1 <0>         0.1165
     23 H2         -2.6031    0.2974    3.1991 H         1 <0>         0.1237
     24 H3         -2.3209   -0.6535    1.7211 H         1 <0>         0.1261
     25 H4         -4.9350    1.7039    0.7588 H         1 <0>         0.1362
     26 H5         -4.5776   -0.0048    1.1065 H         1 <0>         0.1387
     27 H6         -4.5649   -0.8325    3.3865 H         1 <0>         0.1314
     28 H7         -5.4075   -0.5417    5.6819 H         1 <0>         0.1360
     29 H8         -6.2605    1.6498    6.4119 H         1 <0>         0.1358
     30 H9         -6.2634    3.5526    4.8490 H         1 <0>         0.1362
     31 H10        -5.4122    3.2642    2.5566 H         1 <0>         0.1316
     32 H11        -3.1205    2.0470   -0.5645 H         1 <0>         0.1428
     33 H12        -2.4834    0.3912   -0.4207 H         1 <0>         0.1458
     34 H13         0.0021   -0.0041    0.0020 H         1 <0>         0.2102
     35 H14        -1.2030    5.9290    0.0346 H         1 <0>         0.1445
     36 H15        -0.4688    8.2762    0.0490 H         1 <0>         0.1475
     37 H16         3.6100    7.0187    0.0043 H         1 <0>         0.1491
     38 H17         2.8949    4.6656   -0.0008 H         1 <0>         0.1384
     39 N2         -2.9681    1.3437    1.4123 N.4       1 <0>        -0.3934
     40 H18        -2.8259    2.2635    1.8459 H         1 <0>         0.4314
@<TRIPOS>BOND
     1    1   22 1
     2    1   23 1
     3    1   24 1
     4    1   39 1
     5    2    3 1
     6    2   25 1
     7    2   26 1
     8    2   39 1
     9    3    8 ar
    10    3    4 ar
    11    4    5 ar
    12    4   27 1
    13    5    6 ar
    14    5   28 1
    15    6    7 ar
    16    6   29 1
    17    7    8 ar
    18    7   30 1
    19    8   31 1
    20    9   10 1
    21    9   32 1
    22    9   33 1
    23    9   39 1
    24   10   14 1
    25   10   11 2
    26   11   12 1
    27   11   34 1
    28   12   13 1
    29   13   14 2
    30   13   15 1
    31   15   20 ar
    32   15   16 ar
    33   16   17 ar
    34   16   35 1
    35   17   18 ar
    36   17   36 1
    37   18   19 ar
    38   18   21 1
    39   19   20 ar
    40   19   37 1
    41   20   38 1
    42   39   40 1
@<TRIPOS>MOLECULE
ZINC40420293
   31    33     0     0     0
SMALL
USER_CHARGES

@<TRIPOS>ATOM
      1 C1         -0.0167    1.3787    0.0096 C.ar      1 <0>        -0.0825
      2 C2          1.1668    2.0884    0.0021 C.ar      1 <0>        -0.0959
      3 C3          2.3854    1.4089   -0.0131 C.ar      1 <0>        -0.0108
      4 C4          2.3999    0.0136   -0.0207 C.ar      1 <0>        -0.1037
      5 C5          1.2084   -0.6861   -0.0131 C.ar      1 <0>         0.1040
      6 C6          0.0021   -0.0041    0.0020 C.ar      1 <0>        -0.1202
      7 F1          1.2195   -2.0371   -0.0208 F         1 <0>        -0.1280
      8 C7          3.6565    2.1644   -0.0217 C.2       1 <0>         0.1766
      9 N1          4.9029    1.7137   -0.0415 N.2       1 <0>        -0.5037
     10 C8          5.9251    2.5367   -0.0463 C.2       1 <0>        -0.0106
     11 C9          5.7137    3.8796   -0.0308 C.2       1 <0>        -0.1789
     12 S1          3.9260    3.9320   -0.0160 S.3       1 <0>         0.1071
     13 C10         7.3308    1.9941   -0.0684 C.3       1 <0>         0.0829
     14 N2          7.7607    1.6918    1.3034 N.4       1 <0>        -0.4784
     15 C11         9.1310    1.1629    1.2818 C.3       1 <0>        -0.0842
     16 C12         9.3408   -0.2751    1.7601 C.3       1 <0>        -0.1535
     17 C13         9.8063    0.8955    2.6284 C.3       1 <0>        -0.1538
     18 H1         -0.9599    1.9045    0.0260 H         1 <0>         0.1499
     19 H2          1.1498    3.1682    0.0077 H         1 <0>         0.1365
     20 H3          3.3399   -0.5180   -0.0328 H         1 <0>         0.1471
     21 H4         -0.9270   -0.5546    0.0079 H         1 <0>         0.1494
     22 H5          6.4274    4.6902   -0.0319 H         1 <0>         0.2122
     23 H6          7.3595    1.0836   -0.6671 H         1 <0>         0.1457
     24 H7          8.0000    2.7363   -0.5036 H         1 <0>         0.1466
     25 H8          7.7342    2.5346    1.8575 H         1 <0>         0.4267
     26 H9          9.7595    1.5189    0.4655 H         1 <0>         0.1795
     27 H10         8.4621   -0.8288    2.0909 H         1 <0>         0.1212
     28 H11        10.1074   -0.8657    1.2584 H         1 <0>         0.1347
     29 H12        10.8792    1.0751    2.6979 H         1 <0>         0.1350
     30 H13         9.2338    1.1120    3.5303 H         1 <0>         0.1204
     31 H14         7.1413    1.0047    1.7063 H         1 <0>         0.4287
@<TRIPOS>BOND
     1    1    6 ar
     2    1    2 ar
     3    1   18 1
     4    2    3 ar
     5    2   19 1
     6    3    4 ar
     7    3    8 1
     8    4    5 ar
     9    4   20 1
    10    5    6 ar
    11    5    7 1
    12    6   21 1
    13    8   12 1
    14    8    9 2
    15    9   10 1
    16   10   11 2
    17   10   13 1
    18   11   12 1
    19   11   22 1
    20   13   14 1
    21   13   23 1
    22   13   24 1
    23   14   15 1
    24   14   25 1
    25   14   31 1
    26   15   17 1
    27   15   16 1
    28   15   26 1
    29   16   17 1
    30   16   27 1
    31   16   28 1
    32   17   29 1
    33   17   30 1
@<TRIPOS>MOLECULE
ZINC11956027
   27    28     0     0     0
SMALL
USER_CHARGES
2-[2-(2-chlorophenyl)thiazol-4-yl]ethanamine
@<TRIPOS>ATOM
      1 C1          2.3826    1.4210   -0.0132 C.ar      1 <0>        -0.1131
      2 C2          1.1699    2.0874    0.0021 C.ar      1 <0>        -0.0789
      3 C3         -0.0167    1.3770    0.0096 C.ar      1 <0>        -0.1029
      4 C4          0.0021   -0.0041    0.0020 C.ar      1 <0>        -0.0207
      5 C5          1.2228   -0.6820   -0.0133 C.ar      1 <0>        -0.0187
      6 C6          2.4158    0.0420   -0.0209 C.ar      1 <0>        -0.0591
      7 C7          1.2511   -2.1602   -0.0220 C.2       1 <0>         0.1506
      8 N1          2.2914   -2.9817   -0.0419 N.2       1 <0>        -0.5047
      9 C8          2.1310   -4.2843   -0.0420 C.2       1 <0>         0.0348
     10 C9          0.8785   -4.8126   -0.0338 C.2       1 <0>        -0.2179
     11 S1         -0.1086   -3.3213   -0.0165 S.3       1 <0>         0.1081
     12 C10         3.3333   -5.1927   -0.0585 C.3       1 <0>        -0.0697
     13 C11         4.2282   -4.8329   -1.2461 C.3       1 <0>         0.0015
     14 Cl1        -1.4880   -0.8947    0.0109 Cl        1 <0>        -0.0299
     15 H1          3.3055    1.9820   -0.0190 H         1 <0>         0.1422
     16 H2          1.1500    3.1672    0.0081 H         1 <0>         0.1448
     17 H3         -0.9598    1.9032    0.0169 H         1 <0>         0.1477
     18 H4          3.3632   -0.4764   -0.0324 H         1 <0>         0.1423
     19 H5          0.5661   -5.8464   -0.0372 H         1 <0>         0.1991
     20 H6          3.8935   -5.0709    0.8686 H         1 <0>         0.0999
     21 H7          3.0052   -6.2280   -0.1513 H         1 <0>         0.1010
     22 H8          3.6681   -4.9548   -2.1732 H         1 <0>         0.1334
     23 H9          4.5564   -3.7976   -1.1533 H         1 <0>         0.1394
     24 H10         5.1207   -6.6878   -1.2826 H         1 <0>         0.4362
     25 H11         6.0074   -5.5007   -2.0380 H         1 <0>         0.4413
     26 N2          5.4107   -5.7122   -1.2399 N.4       1 <0>        -0.6466
     27 H12         5.9414   -5.5580   -0.3746 H         1 <0>         0.4400
@<TRIPOS>BOND
     1    1    6 ar
     2    1    2 ar
     3    1   15 1
     4    2    3 ar
     5    2   16 1
     6    3    4 ar
     7    3   17 1
     8    4    5 ar
     9    4   14 1
    10    5    6 ar
    11    5    7 1
    12    6   18 1
    13    7   11 1
    14    7    8 2
    15    8    9 1
    16    9   10 2
    17    9   12 1
    18   10   11 1
    19   10   19 1
    20   12   13 1
    21   12   20 1
    22   12   21 1
    23   13   22 1
    24   13   23 1
    25   13   26 1
    26   24   26 1
    27   25   26 1
    28   26   27 1
@<TRIPOS>MOLECULE
ZINC05592336
   23    24     0     0     0
SMALL
USER_CHARGES
2-[2-(3,4-dichlorophenyl)thiazol-4-yl]acetic acid
@<TRIPOS>ATOM
      1 C1         -0.0168    1.3912    0.0097 C.ar      1 <0>        -0.0835
      2 C2          1.1698    2.0950    0.0021 C.ar      1 <0>        -0.0969
      3 C3          2.3782    1.4201   -0.0130 C.ar      1 <0>        -0.0251
      4 C4          2.4040    0.0343   -0.0207 C.ar      1 <0>        -0.0290
      5 C5          1.2230   -0.6801   -0.0133 C.ar      1 <0>        -0.0525
      6 C6          0.0021   -0.0041    0.0020 C.ar      1 <0>         0.0238
      7 C7         -1.2666   -0.7634    0.0096 C.2       1 <0>         0.1284
      8 N1         -1.4624   -2.0745    0.0043 N.2       1 <0>        -0.4364
      9 C8         -2.6724   -2.5828    0.0134 C.2       1 <0>         0.1049
     10 C9         -3.7533   -1.7585    0.0285 C.2       1 <0>        -0.2010
     11 S1         -2.9497   -0.1607    0.0362 S.3       1 <0>        -0.0270
     12 C10        -2.8632   -4.0776    0.0066 C.3       1 <0>        -0.1031
     13 C11        -2.1295   -4.6723   -1.1678 C.2       1 <0>         0.4685
     14 O1         -1.5148   -3.9558   -1.9218 O.co2     1 <0>        -0.6214
     15 Cl1         3.9239   -0.8042   -0.0392 Cl        1 <0>        -0.0422
     16 Cl2         3.8672    2.3127   -0.0230 Cl        1 <0>        -0.0502
     17 H1         -0.9589    1.9193    0.0170 H         1 <0>         0.1426
     18 H2          1.1558    3.1749    0.0081 H         1 <0>         0.1489
     19 H3          1.2436   -1.7599   -0.0189 H         1 <0>         0.1601
     20 H4         -4.8056   -2.0012    0.0374 H         1 <0>         0.1974
     21 H5         -2.4696   -4.4984    0.9318 H         1 <0>         0.0848
     22 H6         -3.9255   -4.3079   -0.0742 H         1 <0>         0.0830
     23 O2         -2.1590   -5.9980   -1.3761 O.co2     1 <0>        -0.7740
@<TRIPOS>BOND
     1    1    6 ar
     2    1    2 ar
     3    1   17 1
     4    2    3 ar
     5    2   18 1
     6    3    4 ar
     7    3   16 1
     8    4    5 ar
     9    4   15 1
    10    5    6 ar
    11    5   19 1
    12    6    7 1
    13    7   11 1
    14    7    8 2
    15    8    9 1
    16    9   10 2
    17    9   12 1
    18   10   11 1
    19   10   20 1
    20   12   13 1
    21   12   21 1
    22   12   22 1
    23   13   14 2
    24   13   23 1
@<TRIPOS>MOLECULE
ZINC35154793
   41    42     0     0     0
SMALL
USER_CHARGES

@<TRIPOS>ATOM
      1 C1         -0.0178    1.4648    0.0101 C.3       1 <0>        -0.0528
      2 N1          0.0021   -0.0041    0.0020 N.4       1 <0>        -0.3867
      3 C2          0.6897   -0.4778   -1.2066 C.3       1 <0>        -0.0473
      4 C3          0.7126   -0.4907    1.1921 C.3       1 <0>        -0.0090
      5 C4         -0.0711   -0.1034    2.4478 C.3       1 <0>        -0.1492
      6 C5          0.6689   -0.6103    3.6874 C.3       1 <0>         0.0609
      7 N2         -0.0835   -0.2384    4.8930 N.3       1 <0>        -0.6845
      8 C6          0.5987   -0.7098    6.1056 C.3       1 <0>         0.1335
      9 C7         -0.2008   -0.3107    7.3191 C.2       1 <0>         0.0499
     10 C8         -1.0813   -1.1862    7.8722 C.2       1 <0>        -0.1779
     11 S1         -1.7132   -0.2063    9.2283 S.3       1 <0>         0.0336
     12 C9         -0.7380    1.2585    8.9114 C.2       1 <0>         0.1595
     13 N3         -0.0440    0.8807    7.8469 N.2       1 <0>        -0.4992
     14 C10        -0.7094    2.5431    9.6428 C.ar      1 <0>        -0.0348
     15 C11         0.1324    3.5721    9.2181 C.ar      1 <0>        -0.0406
     16 C12         0.1553    4.7684    9.9039 C.ar      1 <0>        -0.1548
     17 C13        -0.6553    4.9495   11.0133 C.ar      1 <0>         0.1254
     18 C14        -1.4931    3.9310   11.4393 C.ar      1 <0>        -0.1495
     19 C15        -1.5282    2.7330   10.7569 C.ar      1 <0>        -0.0599
     20 F1         -0.6285    6.1230   11.6822 F         1 <0>        -0.1294
     21 H1          1.0047    1.8421    0.0024 H         1 <0>         0.1220
     22 H2         -0.5450    1.8259   -0.8730 H         1 <0>         0.1249
     23 H3         -0.5280    1.8163    0.9069 H         1 <0>         0.1243
     24 H4          1.7123   -0.1005   -1.2143 H         1 <0>         0.1218
     25 H5          0.7044   -1.5677   -1.2126 H         1 <0>         0.1238
     26 H6          0.1625   -0.1167   -2.0897 H         1 <0>         0.1249
     27 H7          0.8051   -1.5756    1.1418 H         1 <0>         0.1328
     28 H8          1.7055   -0.0428    1.2310 H         1 <0>         0.1294
     29 H9         -0.1636    0.9815    2.4982 H         1 <0>         0.0862
     30 H10        -1.0640   -0.5514    2.4090 H         1 <0>         0.0968
     31 H11         0.7614   -1.6952    3.6370 H         1 <0>         0.0848
     32 H12         1.6619   -0.1623    3.7262 H         1 <0>         0.0424
     33 H13        -0.2386    0.7579    4.9295 H         1 <0>         0.3491
     34 H14         0.6908   -1.7954    6.0720 H         1 <0>         0.0921
     35 H15         1.5912   -0.2626    6.1612 H         1 <0>         0.0529
     36 H16        -1.3306   -2.1940    7.5748 H         1 <0>         0.2006
     37 H17         0.7650    3.4317    8.3541 H         1 <0>         0.1438
     38 H18         0.8063    5.5653    9.5761 H         1 <0>         0.1460
     39 H19        -2.1228    4.0773   12.3044 H         1 <0>         0.1482
     40 H20        -2.1850    1.9416   11.0867 H         1 <0>         0.1386
     41 H21        -0.9445   -0.3533    0.0092 H         1 <0>         0.4279
@<TRIPOS>BOND
     1    1    2 1
     2    1   21 1
     3    1   22 1
     4    1   23 1
     5    2    3 1
     6    2    4 1
     7    2   41 1
     8    3   24 1
     9    3   25 1
    10    3   26 1
    11    4    5 1
    12    4   27 1
    13    4   28 1
    14    5    6 1
    15    5   29 1
    16    5   30 1
    17    6    7 1
    18    6   31 1
    19    6   32 1
    20    7    8 1
    21    7   33 1
    22    8    9 1
    23    8   34 1
    24    8   35 1
    25    9   13 1
    26    9   10 2
    27   10   11 1
    28   10   36 1
    29   11   12 1
    30   12   13 2
    31   12   14 1
    32   14   19 ar
    33   14   15 ar
    34   15   16 ar
    35   15   37 1
    36   16   17 ar
    37   16   38 1
    38   17   18 ar
    39   17   20 1
    40   18   19 ar
    41   18   39 1
    42   19   40 1
@<TRIPOS>MOLECULE
ZINC35154793
   42    43     0     0     0
SMALL
USER_CHARGES

@<TRIPOS>ATOM
      1 C1         -0.0178    1.4648    0.0101 C.3       1 <0>        -0.0504
      2 N1          0.0021   -0.0041    0.0020 N.4       1 <0>        -0.3869
      3 C2          0.7126   -0.4907    1.1921 C.3       1 <0>        -0.0568
      4 C3         -1.3761   -0.5125    0.0124 C.3       1 <0>        -0.0061
      5 C4         -1.3584   -2.0365   -0.1216 C.3       1 <0>        -0.1853
      6 C5         -2.7938   -2.5661   -0.1108 C.3       1 <0>        -0.0038
      7 N2         -2.7769   -4.0294   -0.2395 N.4       1 <0>        -0.5087
      8 C6         -4.1550   -4.5378   -0.2291 C.3       1 <0>         0.0801
      9 C7         -4.1376   -6.0389   -0.3612 C.2       1 <0>        -0.0151
     10 C8         -4.1909   -6.8207    0.7495 C.2       1 <0>        -0.1864
     11 S1         -4.1413   -8.4484    0.0102 S.3       1 <0>         0.1132
     12 C9         -4.0552   -7.9114   -1.6931 C.2       1 <0>         0.1910
     13 N3         -4.0765   -6.5936   -1.5492 N.2       1 <0>        -0.5144
     14 C10        -3.9848   -8.7193   -2.9293 C.ar      1 <0>        -0.0624
     15 C11        -3.9172   -8.0909   -4.1736 C.ar      1 <0>        -0.0323
     16 C12        -3.8518   -8.8492   -5.3237 C.ar      1 <0>        -0.1567
     17 C13        -3.8535  -10.2328   -5.2453 C.ar      1 <0>         0.1452
     18 C14        -3.9205  -10.8619   -4.0123 C.ar      1 <0>        -0.1489
     19 C15        -3.9800  -10.1130   -2.8557 C.ar      1 <0>        -0.0509
     20 F1         -3.7902  -10.9711   -6.3750 F         1 <0>        -0.1207
     21 H1          1.0047    1.8421    0.0024 H         1 <0>         0.1324
     22 H2         -0.5450    1.8259   -0.8730 H         1 <0>         0.1283
     23 H3         -0.5280    1.8163    0.9069 H         1 <0>         0.1268
     24 H4          0.2024   -0.1392    2.0889 H         1 <0>         0.1275
     25 H5          0.7273   -1.5806    1.1861 H         1 <0>         0.1205
     26 H6          1.7352   -0.1134    1.1844 H         1 <0>         0.1330
     27 H7         -1.8584   -0.2358    0.9500 H         1 <0>         0.1414
     28 H8         -1.9290   -0.0808   -0.8218 H         1 <0>         0.1427
     29 H9         -0.8762   -2.3132   -1.0592 H         1 <0>         0.1118
     30 H10        -0.8055   -2.4683    0.7126 H         1 <0>         0.1111
     31 H11        -3.2761   -2.2894    0.8267 H         1 <0>         0.1446
     32 H12        -3.3467   -2.1344   -0.9450 H         1 <0>         0.1450
     33 H13        -2.3304   -4.2855   -1.1074 H         1 <0>         0.4346
     34 H14        -4.6373   -4.2612    0.7084 H         1 <0>         0.1490
     35 H15        -4.7079   -4.1061   -1.0634 H         1 <0>         0.1487
     36 H16        -4.2472   -6.5374    1.7902 H         1 <0>         0.2102
     37 H17        -3.9165   -7.0126   -4.2358 H         1 <0>         0.1435
     38 H18        -3.7994   -8.3639   -6.2871 H         1 <0>         0.1511
     39 H19        -3.9216  -11.9404   -3.9567 H         1 <0>         0.1543
     40 H20        -4.0273  -10.6041   -1.8950 H         1 <0>         0.1400
     41 H21         0.4744   -0.3295   -0.8281 H         1 <0>         0.4304
     42 H22        -2.2651   -4.4290    0.5328 H         1 <0>         0.4292
@<TRIPOS>BOND
     1    1    2 1
     2    1   21 1
     3    1   22 1
     4    1   23 1
     5    2    3 1
     6    2    4 1
     7    2   41 1
     8    3   24 1
     9    3   25 1
    10    3   26 1
    11    4    5 1
    12    4   27 1
    13    4   28 1
    14    5    6 1
    15    5   29 1
    16    5   30 1
    17    6    7 1
    18    6   31 1
    19    6   32 1
    20    7    8 1
    21    7   33 1
    22    7   42 1
    23    8    9 1
    24    8   34 1
    25    8   35 1
    26    9   13 1
    27    9   10 2
    28   10   11 1
    29   10   36 1
    30   11   12 1
    31   12   13 2
    32   12   14 1
    33   14   19 ar
    34   14   15 ar
    35   15   16 ar
    36   15   37 1
    37   16   17 ar
    38   16   38 1
    39   17   18 ar
    40   17   20 1
    41   18   19 ar
    42   18   39 1
    43   19   40 1
@<TRIPOS>MOLECULE
ZINC35154793
   41    42     0     0     0
SMALL
USER_CHARGES

@<TRIPOS>ATOM
      1 C1         -0.0178    1.4648    0.0101 C.3       1 <0>         0.0204
      2 N1          0.0021   -0.0041    0.0020 N.3       1 <0>        -0.5472
      3 C2          0.7859   -0.5261    1.1294 C.3       1 <0>         0.0149
      4 C3         -1.3620   -0.5491    0.0121 C.3       1 <0>         0.0550
      5 C4         -1.3110   -2.0562   -0.2470 C.3       1 <0>        -0.1496
      6 C5         -2.7317   -2.6239   -0.2365 C.3       1 <0>        -0.0074
      7 N2         -2.6827   -4.0708   -0.4852 N.4       1 <0>        -0.5072
      8 C6         -4.0468   -4.6159   -0.4751 C.3       1 <0>         0.0783
      9 C7         -3.9966   -6.1002   -0.7303 C.2       1 <0>        -0.0086
     10 C8         -3.9947   -6.9708    0.3137 C.2       1 <0>        -0.1819
     11 S1         -3.9286   -8.5311   -0.5579 S.3       1 <0>         0.0968
     12 C9         -3.9107   -7.8554   -2.2132 C.2       1 <0>         0.1845
     13 N3         -3.9600   -6.5548   -1.9611 N.2       1 <0>        -0.5076
     14 C10        -3.8602   -8.5580   -3.5130 C.ar      1 <0>        -0.0551
     15 C11        -3.8482   -7.8290   -4.7031 C.ar      1 <0>        -0.0328
     16 C12        -3.8011   -8.4894   -5.9129 C.ar      1 <0>        -0.1554
     17 C13        -3.7661   -9.8744   -5.9483 C.ar      1 <0>         0.1393
     18 C14        -3.7778  -10.6031   -4.7695 C.ar      1 <0>        -0.1500
     19 C15        -3.8185   -9.9524   -3.5541 C.ar      1 <0>        -0.0533
     20 F1         -3.7209  -10.5165   -7.1361 F         1 <0>        -0.1240
     21 H1          1.0047    1.8421    0.0024 H         1 <0>         0.0773
     22 H2         -0.5450    1.8259   -0.8730 H         1 <0>         0.0737
     23 H3         -0.5280    1.8163    0.9069 H         1 <0>         0.0320
     24 H4          0.3442   -0.1877    2.0667 H         1 <0>         0.0316
     25 H5          0.7843   -1.6157    1.0994 H         1 <0>         0.0669
     26 H6          1.8110   -0.1623    1.0586 H         1 <0>         0.0770
     27 H7         -1.8206   -0.3627    0.9832 H         1 <0>         0.0452
     28 H8         -1.9520   -0.0663   -0.7669 H         1 <0>         0.0861
     29 H9         -0.8524   -2.2426   -1.2181 H         1 <0>         0.0974
     30 H10        -0.7210   -2.5390    0.5321 H         1 <0>         0.0877
     31 H11        -3.1903   -2.4375    0.7347 H         1 <0>         0.1328
     32 H12        -3.3217   -2.1410   -1.0155 H         1 <0>         0.1355
     33 H13        -2.2583   -4.2433   -1.3842 H         1 <0>         0.4323
     34 H14        -4.5054   -4.4295    0.4960 H         1 <0>         0.1459
     35 H15        -4.6368   -4.1330   -1.2542 H         1 <0>         0.1459
     36 H16        -4.0245   -6.7745    1.3753 H         1 <0>         0.2106
     37 H17        -3.8762   -6.7497   -4.6767 H         1 <0>         0.1455
     38 H18        -3.7918   -7.9263   -6.8344 H         1 <0>         0.1503
     39 H19        -3.7504  -11.6822   -4.8026 H         1 <0>         0.1519
     40 H20        -3.8227  -10.5211   -2.6360 H         1 <0>         0.1393
     41 H21        -2.1366   -4.5177    0.2360 H         1 <0>         0.4262
@<TRIPOS>BOND
     1    1    2 1
     2    1   21 1
     3    1   22 1
     4    1   23 1
     5    2    3 1
     6    2    4 1
     7    3   24 1
     8    3   25 1
     9    3   26 1
    10    4    5 1
    11    4   27 1
    12    4   28 1
    13    5    6 1
    14    5   29 1
    15    5   30 1
    16    6    7 1
    17    6   31 1
    18    6   32 1
    19    7    8 1
    20    7   33 1
    21    7   41 1
    22    8    9 1
    23    8   34 1
    24    8   35 1
    25    9   13 1
    26    9   10 2
    27   10   11 1
    28   10   36 1
    29   11   12 1
    30   12   13 2
    31   12   14 1
    32   14   19 ar
    33   14   15 ar
    34   15   16 ar
    35   15   37 1
    36   16   17 ar
    37   16   38 1
    38   17   18 ar
    39   17   20 1
    40   18   19 ar
    41   18   39 1
    42   19   40 1
@<TRIPOS>MOLECULE
ZINC62792742
   30    32     0     0     0
SMALL
USER_CHARGES

@<TRIPOS>ATOM
      1 C1         -0.0168    1.3897    0.0097 C.ar      1 <0>        -0.0325
      2 C2          1.1684    2.0943    0.0021 C.ar      1 <0>        -0.2021
      3 C3          2.3813    1.4159   -0.0131 C.ar      1 <0>         0.2265
      4 C4          2.4025    0.0262   -0.0207 C.ar      1 <0>        -0.1998
      5 C5          1.2197   -0.6825   -0.0137 C.ar      1 <0>        -0.0508
      6 C6          0.0021   -0.0041    0.0020 C.ar      1 <0>        -0.0933
      7 C7         -1.2719   -0.7644    0.0106 C.2       1 <0>         0.1167
      8 C8         -1.2592   -2.1348    0.0083 C.2       1 <0>        -0.1983
      9 S1         -3.0133   -2.4822    0.0219 S.3       1 <0>         0.0263
     10 C9         -3.5759   -0.7855    0.0291 C.2       1 <0>         0.1500
     11 N1         -2.4276   -0.1271    0.0260 N.2       1 <0>        -0.4846
     12 C10        -4.9570   -0.2578    0.0404 C.ar      1 <0>        -0.0112
     13 C11        -5.1802    1.1200    0.0382 C.ar      1 <0>        -0.0374
     14 C12        -6.4701    1.6077    0.0488 C.ar      1 <0>        -0.1395
     15 C13        -7.5445    0.7325    0.0617 C.ar      1 <0>         0.1295
     16 C14        -7.3290   -0.6374    0.0639 C.ar      1 <0>        -0.0739
     17 C15        -6.0418   -1.1356    0.0476 C.ar      1 <0>        -0.0572
     18 Cl1        -8.6801   -1.7273    0.0801 Cl        1 <0>        -0.0358
     19 F1         -8.8062    1.2156    0.0725 F         1 <0>        -0.1190
     20 N2          3.5808    2.1317   -0.0211 N.pl3     1 <0>        -0.8756
     21 H1         -0.9591    1.9173    0.0260 H         1 <0>         0.1316
     22 H2          1.1543    3.1742    0.0077 H         1 <0>         0.1232
     23 H3          3.3462   -0.4990   -0.0326 H         1 <0>         0.1242
     24 H4          1.2366   -1.7623   -0.0204 H         1 <0>         0.1238
     25 H5         -0.4215   -2.8164    0.0005 H         1 <0>         0.2015
     26 H6         -4.3438    1.8033    0.0286 H         1 <0>         0.1541
     27 H7         -6.6434    2.6737    0.0475 H         1 <0>         0.1561
     28 H8         -5.8745   -2.2025    0.0448 H         1 <0>         0.1484
     29 H9          3.5668    3.1016   -0.0161 H         1 <0>         0.3997
     30 H10         4.4277    1.6589   -0.0318 H         1 <0>         0.3994
@<TRIPOS>BOND
     1    1    6 ar
     2    1    2 ar
     3    1   21 1
     4    2    3 ar
     5    2   22 1
     6    3    4 ar
     7    3   20 1
     8    4    5 ar
     9    4   23 1
    10    5    6 ar
    11    5   24 1
    12    6    7 1
    13    7   11 1
    14    7    8 2
    15    8    9 1
    16    8   25 1
    17    9   10 1
    18   10   11 2
    19   10   12 1
    20   12   17 ar
    21   12   13 ar
    22   13   14 ar
    23   13   26 1
    24   14   15 ar
    25   14   27 1
    26   15   16 ar
    27   15   19 1
    28   16   17 ar
    29   16   18 1
    30   17   28 1
    31   20   29 1
    32   20   30 1
@<TRIPOS>MOLECULE
ZINC35163424
   34    35     0     0     0
SMALL
USER_CHARGES

@<TRIPOS>ATOM
      1 C1         -0.0173    1.4248    0.0099 C.3       1 <0>         0.0302
      2 O1          0.0021   -0.0041    0.0020 O.3       1 <0>        -0.4028
      3 C2         -1.2953   -0.6030    0.0112 C.3       1 <0>         0.0257
      4 C3         -1.1538   -2.1264    0.0017 C.3       1 <0>        -0.0009
      5 N1         -0.5138   -2.5666    1.2485 N.4       1 <0>        -0.5071
      6 C4         -0.3780   -4.0292    1.2393 C.3       1 <0>         0.0774
      7 C5          0.2786   -4.4808    2.5184 C.2       1 <0>        -0.0075
      8 C6         -0.4833   -4.8880    3.5678 C.2       1 <0>        -0.1824
      9 S1          0.7866   -5.2913    4.7608 S.3       1 <0>         0.0954
     10 C7          2.1900   -4.8746    3.7343 C.2       1 <0>         0.1845
     11 N2          1.5873   -4.4866    2.6190 N.2       1 <0>        -0.5065
     12 C8          3.6338   -4.9482    4.0438 C.ar      1 <0>        -0.0548
     13 C9          4.5754   -4.5637    3.0881 C.ar      1 <0>        -0.0326
     14 C10         5.9210   -4.6344    3.3820 C.ar      1 <0>        -0.1554
     15 C11         6.3388   -5.0866    4.6236 C.ar      1 <0>         0.1389
     16 C12         5.4080   -5.4696    5.5763 C.ar      1 <0>        -0.1502
     17 C13         4.0598   -5.3970    5.2949 C.ar      1 <0>        -0.0534
     18 F1          7.6582   -5.1547    4.9062 F         1 <0>        -0.1242
     19 H1          1.0053    1.8021    0.0021 H         1 <0>         0.1006
     20 H2         -0.5445    1.7859   -0.8732 H         1 <0>         0.0559
     21 H3         -0.5275    1.7763    0.9067 H         1 <0>         0.0520
     22 H4         -1.8320   -0.2936    0.9080 H         1 <0>         0.0750
     23 H5         -1.8490   -0.2840   -0.8718 H         1 <0>         0.1000
     24 H6         -2.1404   -2.5824   -0.0809 H         1 <0>         0.1472
     25 H7         -0.5414   -2.4291   -0.8477 H         1 <0>         0.1420
     26 H8          0.3995   -2.1444    1.3249 H         1 <0>         0.4382
     27 H9         -1.3645   -4.4852    1.1567 H         1 <0>         0.1464
     28 H10         0.2345   -4.3320    0.3900 H         1 <0>         0.1461
     29 H11        -1.5578   -4.9503    3.6567 H         1 <0>         0.2107
     30 H12         4.2509   -4.2119    2.1200 H         1 <0>         0.1458
     31 H13         6.6505   -4.3371    2.6432 H         1 <0>         0.1502
     32 H14         5.7388   -5.8212    6.5423 H         1 <0>         0.1517
     33 H15         3.3351   -5.6910    6.0396 H         1 <0>         0.1393
     34 H16        -1.0807   -2.2863    2.0347 H         1 <0>         0.4246
@<TRIPOS>BOND
     1    1    2 1
     2    1   19 1
     3    1   20 1
     4    1   21 1
     5    2    3 1
     6    3    4 1
     7    3   22 1
     8    3   23 1
     9    4    5 1
    10    4   24 1
    11    4   25 1
    12    5    6 1
    13    5   26 1
    14    5   34 1
    15    6    7 1
    16    6   27 1
    17    6   28 1
    18    7   11 1
    19    7    8 2
    20    8    9 1
    21    8   29 1
    22    9   10 1
    23   10   11 2
    24   10   12 1
    25   12   17 ar
    26   12   13 ar
    27   13   14 ar
    28   13   30 1
    29   14   15 ar
    30   14   31 1
    31   15   16 ar
    32   15   18 1
    33   16   17 ar
    34   16   32 1
    35   17   33 1
@<TRIPOS>MOLECULE
ZINC19723117
   23    24     0     0     0
SMALL
USER_CHARGES
2-(p-tolyl)thiazole-4-carbaldehyde
@<TRIPOS>ATOM
      1 C1         -4.4202   -3.6873    0.0287 C.3       1 <0>        -0.1232
      2 C2         -3.2622   -2.7228    0.0216 C.ar      1 <0>        -0.0623
      3 C3         -1.9652   -3.2039    0.0053 C.ar      1 <0>        -0.1194
      4 C4         -0.9007   -2.3262   -0.0013 C.ar      1 <0>        -0.0870
      5 C5         -1.1345   -0.9507    0.0085 C.ar      1 <0>        -0.0291
      6 C6         -2.4448   -0.4719    0.0302 C.ar      1 <0>        -0.0634
      7 C7         -3.5007   -1.3601    0.0318 C.ar      1 <0>        -0.1217
      8 C8          0.0021   -0.0041    0.0020 C.2       1 <0>         0.1390
      9 N1         -0.0158    1.3145    0.0093 N.2       1 <0>        -0.4527
     10 C9          1.1229    1.9949    0.0021 C.2       1 <0>        -0.0452
     11 C10         2.3184    1.2913   -0.0131 C.2       1 <0>        -0.1839
     12 S1          1.7534   -0.3508   -0.0166 S.3       1 <0>         0.0993
     13 C11         1.1181    3.4597    0.0095 C.2       1 <0>         0.3975
     14 O1          0.0652    4.0629    0.0228 O.2       1 <0>        -0.4345
     15 H1         -4.0383   -4.7188    0.0188 H         1 <0>         0.0692
     16 H2         -5.0434   -3.5185   -0.8618 H         1 <0>         0.0751
     17 H3         -5.0241   -3.5285    0.9343 H         1 <0>         0.0752
     18 H4         -1.7855   -4.2689   -0.0026 H         1 <0>         0.1324
     19 H5          0.1114   -2.7030   -0.0136 H         1 <0>         0.1274
     20 H6         -2.6323    0.5916    0.0420 H         1 <0>         0.1368
     21 H7         -4.5155   -0.9908    0.0448 H         1 <0>         0.1321
     22 H8          3.3315    1.6654   -0.0202 H         1 <0>         0.2117
     23 H9          2.0688    4.0129    0.0030 H         1 <0>         0.1267
@<TRIPOS>BOND
     1    1    2 1
     2    1   15 1
     3    1   16 1
     4    1   17 1
     5    2    7 ar
     6    2    3 ar
     7    3    4 ar
     8    3   18 1
     9    4    5 ar
    10    4   19 1
    11    5    6 ar
    12    5    8 1
    13    6    7 ar
    14    6   20 1
    15    7   21 1
    16    8   12 1
    17    8    9 2
    18    9   10 1
    19   10   11 2
    20   10   13 1
    21   11   12 1
    22   11   22 1
    23   13   14 2
    24   13   23 1
@<TRIPOS>MOLECULE
ZINC00380876
   28    30     0     0     0
SMALL
USER_CHARGES
2,4-diphenylthiazole
@<TRIPOS>ATOM
      1 C1          2.8359   -4.2241   -0.0481 C.ar      1 <0>        -0.1126
      2 C2          3.7195   -3.1599   -0.0509 C.ar      1 <0>        -0.1224
      3 C3          3.2437   -1.8645   -0.0394 C.ar      1 <0>        -0.0857
      4 C4          1.8701   -1.6296   -0.0250 C.ar      1 <0>        -0.0292
      5 C5          0.9844   -2.7057   -0.0170 C.ar      1 <0>        -0.1048
      6 C6          1.4714   -3.9969   -0.0339 C.ar      1 <0>        -0.1203
      7 C7          1.3525   -0.2394   -0.0121 C.2       1 <0>         0.1021
      8 C8          0.0021   -0.0041    0.0020 C.2       1 <0>        -0.1953
      9 S1         -0.0222    1.7840    0.0119 S.3       1 <0>         0.0216
     10 C9          1.7483    2.0303   -0.0037 C.2       1 <0>         0.1636
     11 N1          2.1879    0.7821   -0.0146 N.2       1 <0>        -0.4910
     12 C10         2.5173    3.2933   -0.0043 C.ar      1 <0>        -0.0210
     13 C11         3.9124    3.2642   -0.0124 C.ar      1 <0>        -0.0692
     14 C12         4.6240    4.4462   -0.0178 C.ar      1 <0>        -0.1204
     15 C13         3.9574    5.6585   -0.0044 C.ar      1 <0>        -0.0980
     16 C14         2.5744    5.6942    0.0091 C.ar      1 <0>        -0.1178
     17 C15         1.8510    4.5194    0.0092 C.ar      1 <0>        -0.0908
     18 H1          3.2126   -5.2363   -0.0575 H         1 <0>         0.1243
     19 H2          4.7838   -3.3431   -0.0617 H         1 <0>         0.1257
     20 H3          3.9345   -1.0343   -0.0419 H         1 <0>         0.1318
     21 H4         -0.0810   -2.5294   -0.0017 H         1 <0>         0.1240
     22 H5          0.7860   -4.8316   -0.0315 H         1 <0>         0.1266
     23 H6         -0.8198   -0.7047    0.0056 H         1 <0>         0.2017
     24 H7          4.4340    2.3185   -0.0184 H         1 <0>         0.1355
     25 H8          5.7038    4.4251   -0.0286 H         1 <0>         0.1321
     26 H9          4.5191    6.5810   -0.0048 H         1 <0>         0.1296
     27 H10         2.0600    6.6438    0.0198 H         1 <0>         0.1324
     28 H11         0.7715    4.5486    0.0193 H         1 <0>         0.1273
@<TRIPOS>BOND
     1    1    6 ar
     2    1    2 ar
     3    1   18 1
     4    2    3 ar
     5    2   19 1
     6    3    4 ar
     7    3   20 1
     8    4    5 ar
     9    4    7 1
    10    5    6 ar
    11    5   21 1
    12    6   22 1
    13    7   11 1
    14    7    8 2
    15    8    9 1
    16    8   23 1
    17    9   10 1
    18   10   11 2
    19   10   12 1
    20   12   17 ar
    21   12   13 ar
    22   13   14 ar
    23   13   24 1
    24   14   15 ar
    25   14   25 1
    26   15   16 ar
    27   15   26 1
    28   16   17 ar
    29   16   27 1
    30   17   28 1
@<TRIPOS>MOLECULE
ZINC43389062
   33    34     0     0     0
SMALL
USER_CHARGES

@<TRIPOS>ATOM
      1 C1         -0.0187    1.5258    0.0104 C.3       1 <0>        -0.1859
      2 C2          0.0021   -0.0041    0.0020 C.3       1 <0>         0.0241
      3 C3          0.7182   -0.4975   -1.2568 C.3       1 <0>        -0.1844
      4 N1          0.7126   -0.4907    1.1921 N.4       1 <0>        -0.5066
      5 C4         -0.0398   -0.1189    2.3978 C.3       1 <0>         0.0746
      6 C5          0.6890   -0.6181    3.6187 C.2       1 <0>        -0.0097
      7 C6          1.5342    0.2069    4.2918 C.2       1 <0>        -0.1761
      8 S1          2.0892   -0.8828    5.5968 S.3       1 <0>         0.1102
      9 C7          1.1376   -2.3143    5.1045 C.2       1 <0>         0.1708
     10 N2          0.5048   -1.8483    4.0369 N.2       1 <0>        -0.4979
     11 C8          1.0706   -3.6550    5.7243 C.ar      1 <0>        -0.0046
     12 C9          0.2571   -4.6437    5.1685 C.ar      1 <0>        -0.0633
     13 C10         0.1981   -5.8932    5.7498 C.ar      1 <0>        -0.0803
     14 C11         0.9437   -6.1689    6.8832 C.ar      1 <0>        -0.0498
     15 C12         1.7541   -5.1916    7.4408 C.ar      1 <0>         0.1204
     16 C13         1.8247   -3.9382    6.8635 C.ar      1 <0>        -0.1129
     17 F1          2.4790   -5.4666    8.5471 F         1 <0>        -0.1125
     18 Cl1         0.8636   -7.7438    7.6092 Cl        1 <0>        -0.0218
     19 H1          1.0039    1.9031    0.0027 H         1 <0>         0.0823
     20 H2         -0.5459    1.8868   -0.8726 H         1 <0>         0.1075
     21 H3         -0.5289    1.8773    0.9072 H         1 <0>         0.0815
     22 H4         -1.0205   -0.3814    0.0098 H         1 <0>         0.1410
     23 H5          1.7408   -0.1202   -1.2645 H         1 <0>         0.0814
     24 H6          0.7330   -1.5874   -1.2628 H         1 <0>         0.0820
     25 H7          0.1910   -0.1364   -2.1398 H         1 <0>         0.1081
     26 H8          0.7982   -1.4950    1.1455 H         1 <0>         0.4311
     27 H9         -0.1324    0.9660    2.4481 H         1 <0>         0.1471
     28 H10        -1.0328   -0.5668    2.3589 H         1 <0>         0.1460
     29 H11         1.7977    1.2353    4.0934 H         1 <0>         0.2124
     30 H12        -0.3257   -4.4305    4.2846 H         1 <0>         0.1520
     31 H13        -0.4316   -6.6581    5.3199 H         1 <0>         0.1584
     32 H14         2.4592   -3.1783    7.2952 H         1 <0>         0.1509
     33 H15         1.6317   -0.0761    1.2281 H         1 <0>         0.4242
@<TRIPOS>BOND
     1    1    2 1
     2    1   19 1
     3    1   20 1
     4    1   21 1
     5    2    3 1
     6    2    4 1
     7    2   22 1
     8    3   23 1
     9    3   24 1
    10    3   25 1
    11    4    5 1
    12    4   26 1
    13    4   33 1
    14    5    6 1
    15    5   27 1
    16    5   28 1
    17    6   10 1
    18    6    7 2
    19    7    8 1
    20    7   29 1
    21    8    9 1
    22    9   10 2
    23    9   11 1
    24   11   16 ar
    25   11   12 ar
    26   12   13 ar
    27   12   30 1
    28   13   14 ar
    29   13   31 1
    30   14   15 ar
    31   14   18 1
    32   15   16 ar
    33   15   17 1
    34   16   32 1
@<TRIPOS>MOLECULE
ZINC80813225
   36    37     0     0     0
SMALL
USER_CHARGES

@<TRIPOS>ATOM
      1 C1         -0.0187    1.5258    0.0104 C.3       1 <0>        -0.1562
      2 C2          0.0021   -0.0041    0.0020 C.3       1 <0>        -0.1497
      3 C3          0.7182   -0.4975   -1.2568 C.3       1 <0>        -0.0159
      4 N1          0.7381   -1.9663   -1.2649 N.4       1 <0>        -0.5004
      5 C4          1.4257   -2.4401   -2.4735 C.3       1 <0>         0.1167
      6 H1          2.4178   -1.9917   -2.5265 H         1 <0>         0.1499
      7 C5          0.6183   -2.0394   -3.7098 C.3       1 <0>        -0.1795
      8 C6          1.5548   -3.9407   -2.4224 C.2       1 <0>        -0.0031
      9 C7          2.5512   -4.5620   -3.1074 C.2       1 <0>        -0.1954
     10 S1          2.2215   -6.2701   -2.6924 S.3       1 <0>         0.1520
     11 C8          0.7964   -5.9709   -1.6547 C.2       1 <0>         0.1549
     12 N2          0.7087   -4.6494   -1.7123 N.2       1 <0>        -0.5218
     13 C9         -0.0524   -6.9368   -0.9250 C.ar      1 <0>        -0.0092
     14 C10        -1.1342   -6.4862   -0.1670 C.ar      1 <0>        -0.0560
     15 C11        -1.9230   -7.3919    0.5114 C.ar      1 <0>        -0.0975
     16 C12        -1.6447   -8.7456    0.4425 C.ar      1 <0>        -0.0690
     17 C13        -0.5735   -9.2007   -0.3066 C.ar      1 <0>        -0.0276
     18 C14         0.2214   -8.3040   -0.9958 C.ar      1 <0>        -0.0191
     19 Cl1         1.5602   -8.8758   -1.9415 Cl        1 <0>        -0.0066
     20 Cl2        -0.2317  -10.9009   -0.3860 Cl        1 <0>        -0.0217
     21 H2          1.0039    1.9031    0.0027 H         1 <0>         0.0671
     22 H3         -0.5459    1.8868   -0.8726 H         1 <0>         0.0671
     23 H4         -0.5289    1.8773    0.9072 H         1 <0>         0.0776
     24 H5          0.5293   -0.3651    0.8851 H         1 <0>         0.0859
     25 H6         -1.0205   -0.3814    0.0098 H         1 <0>         0.0864
     26 H7          0.1910   -0.1364   -2.1398 H         1 <0>         0.1334
     27 H8          1.7408   -0.1202   -1.2645 H         1 <0>         0.1317
     28 H9          1.2261   -2.3006   -0.4474 H         1 <0>         0.4291
     29 H10        -0.3738   -2.4878   -3.6568 H         1 <0>         0.0839
     30 H11         0.5249   -0.9541   -3.7467 H         1 <0>         0.0887
     31 H12         1.1285   -2.3909   -4.6066 H         1 <0>         0.1065
     32 H13         3.3266   -4.1409   -3.7301 H         1 <0>         0.2073
     33 H14        -1.3532   -5.4301   -0.1114 H         1 <0>         0.1478
     34 H15        -2.7600   -7.0434    1.0983 H         1 <0>         0.1539
     35 H16        -2.2658   -9.4500    0.9758 H         1 <0>         0.1566
     36 H17        -0.2085   -2.3156   -1.2577 H         1 <0>         0.4320
@<TRIPOS>BOND
     1    1    2 1
     2    1   21 1
     3    1   22 1
     4    1   23 1
     5    2    3 1
     6    2   24 1
     7    2   25 1
     8    3    4 1
     9    3   26 1
    10    3   27 1
    11    4    5 1
    12    4   28 1
    13    4   36 1
    14    5    6 1
    15    5    7 1
    16    5    8 1
    17    7   29 1
    18    7   30 1
    19    7   31 1
    20    8   12 1
    21    8    9 2
    22    9   10 1
    23    9   32 1
    24   10   11 1
    25   11   12 2
    26   11   13 1
    27   13   18 ar
    28   13   14 ar
    29   14   15 ar
    30   14   33 1
    31   15   16 ar
    32   15   34 1
    33   16   17 ar
    34   16   35 1
    35   17   18 ar
    36   17   20 1
    37   18   19 1
@<TRIPOS>MOLECULE
ZINC90249919
   33    34     0     0     0
SMALL
USER_CHARGES

@<TRIPOS>ATOM
      1 C1         -0.0187    1.5258    0.0104 C.3       1 <0>        -0.1855
      2 C2          0.0021   -0.0041    0.0020 C.3       1 <0>         0.0238
      3 C3          0.7182   -0.4975   -1.2568 C.3       1 <0>        -0.1842
      4 N1          0.7126   -0.4907    1.1921 N.4       1 <0>        -0.5064
      5 C4         -0.0398   -0.1189    2.3978 C.3       1 <0>         0.0737
      6 C5          0.6890   -0.6181    3.6187 C.2       1 <0>        -0.0175
      7 C6          1.5341    0.2070    4.2919 C.2       1 <0>        -0.2055
      8 S1          2.0887   -0.8826    5.5973 S.3       1 <0>         0.1546
      9 C7          1.1369   -2.3140    5.1051 C.2       1 <0>         0.1430
     10 N2          0.5048   -1.8483    4.0369 N.2       1 <0>        -0.4896
     11 C8          1.0694   -3.6545    5.7252 C.ar      1 <0>         0.0126
     12 C9          0.2563   -4.6433    5.1699 C.ar      1 <0>        -0.0565
     13 C10         0.1981   -5.8931    5.7535 C.ar      1 <0>        -0.0216
     14 C11         0.9443   -6.1662    6.8879 C.ar      1 <0>        -0.0761
     15 C12         1.7520   -5.1906    7.4429 C.ar      1 <0>        -0.0668
     16 C13         1.8234   -3.9382    6.8655 C.ar      1 <0>        -0.0776
     17 Br1         2.9342   -2.6079    7.6221 Br        1 <0>         0.0138
     18 Cl1        -0.8128   -7.1247    5.0644 Cl        1 <0>        -0.0346
     19 H1          1.0039    1.9031    0.0027 H         1 <0>         0.0821
     20 H2         -0.5459    1.8868   -0.8726 H         1 <0>         0.1069
     21 H3         -0.5289    1.8773    0.9072 H         1 <0>         0.0814
     22 H4         -1.0205   -0.3814    0.0098 H         1 <0>         0.1403
     23 H5          1.7408   -0.1202   -1.2645 H         1 <0>         0.0811
     24 H6          0.7330   -1.5874   -1.2628 H         1 <0>         0.0817
     25 H7          0.1910   -0.1364   -2.1398 H         1 <0>         0.1076
     26 H8          0.7982   -1.4950    1.1455 H         1 <0>         0.4305
     27 H9         -0.1324    0.9660    2.4481 H         1 <0>         0.1453
     28 H10        -1.0328   -0.5668    2.3589 H         1 <0>         0.1434
     29 H11         1.7979    1.2353    4.0933 H         1 <0>         0.2047
     30 H12        -0.3265   -4.4312    4.2857 H         1 <0>         0.1555
     31 H13         0.8948   -7.1452    7.3411 H         1 <0>         0.1574
     32 H14         2.3311   -5.4097    8.3278 H         1 <0>         0.1586
     33 H15         1.6317   -0.0761    1.2281 H         1 <0>         0.4238
@<TRIPOS>BOND
     1    1    2 1
     2    1   19 1
     3    1   20 1
     4    1   21 1
     5    2    3 1
     6    2    4 1
     7    2   22 1
     8    3   23 1
     9    3   24 1
    10    3   25 1
    11    4    5 1
    12    4   26 1
    13    4   33 1
    14    5    6 1
    15    5   27 1
    16    5   28 1
    17    6   10 1
    18    6    7 2
    19    7    8 1
    20    7   29 1
    21    8    9 1
    22    9   10 2
    23    9   11 1
    24   11   16 ar
    25   11   12 ar
    26   12   13 ar
    27   12   30 1
    28   13   14 ar
    29   13   18 1
    30   14   15 ar
    31   14   31 1
    32   15   16 ar
    33   15   32 1
    34   16   17 1
@<TRIPOS>MOLECULE
ZINC80803774
   36    37     0     0     0
SMALL
USER_CHARGES

@<TRIPOS>ATOM
      1 C1         -0.0187    1.5258    0.0104 C.3       1 <0>        -0.1562
      2 C2          0.0021   -0.0041    0.0020 C.3       1 <0>        -0.1497
      3 C3          0.7182   -0.4975   -1.2568 C.3       1 <0>        -0.0159
      4 N1          0.7381   -1.9663   -1.2649 N.4       1 <0>        -0.5004
      5 C4          1.4257   -2.4401   -2.4735 C.3       1 <0>         0.1167
      6 H1          0.9519   -2.0070   -3.3544 H         1 <0>         0.1500
      7 C5          2.8948   -2.0156   -2.4239 C.3       1 <0>        -0.1796
      8 C6          1.3392   -3.9429   -2.5442 C.2       1 <0>        -0.0032
      9 C7          1.4314   -4.5745   -3.7445 C.2       1 <0>        -0.1954
     10 S1          1.2681   -6.2805   -3.2331 S.3       1 <0>         0.1521
     11 C8          1.0952   -5.9670   -1.4813 C.2       1 <0>         0.1546
     12 N2          1.1799   -4.6445   -1.4466 N.2       1 <0>        -0.5217
     13 C9          0.9122   -6.9251   -0.3702 C.ar      1 <0>        -0.0092
     14 C10         0.7908   -6.4627    0.9410 C.ar      1 <0>        -0.0560
     15 C11         0.6197   -7.3611    1.9737 C.ar      1 <0>        -0.0974
     16 C12         0.5681   -8.7191    1.7131 C.ar      1 <0>        -0.0691
     17 C13         0.6881   -9.1860    0.4157 C.ar      1 <0>        -0.0275
     18 C14         0.8542   -8.2959   -0.6289 C.ar      1 <0>        -0.0192
     19 Cl1         0.9969   -8.8813   -2.2569 Cl        1 <0>        -0.0065
     20 Cl2         0.6233  -10.8916    0.0989 Cl        1 <0>        -0.0216
     21 H2          1.0039    1.9031    0.0027 H         1 <0>         0.0671
     22 H3         -0.5459    1.8868   -0.8726 H         1 <0>         0.0671
     23 H4         -0.5289    1.8773    0.9072 H         1 <0>         0.0776
     24 H5          0.5293   -0.3651    0.8851 H         1 <0>         0.0864
     25 H6         -1.0205   -0.3814    0.0098 H         1 <0>         0.0860
     26 H7          0.1910   -0.1364   -2.1398 H         1 <0>         0.1317
     27 H8          1.7408   -0.1202   -1.2645 H         1 <0>         0.1334
     28 H9          1.2261   -2.3006   -0.4474 H         1 <0>         0.4321
     29 H10         3.3686   -2.4487   -1.5430 H         1 <0>         0.0839
     30 H11         3.4050   -2.3671   -3.3207 H         1 <0>         0.1065
     31 H12         2.9574   -0.9286   -2.3728 H         1 <0>         0.0887
     32 H13         1.5656   -4.1606   -4.7330 H         1 <0>         0.2073
     33 H14         0.8311   -5.4033    1.1469 H         1 <0>         0.1478
     34 H15         0.5261   -7.0037    2.9886 H         1 <0>         0.1539
     35 H16         0.4340   -9.4178    2.5257 H         1 <0>         0.1566
     36 H17        -0.2085   -2.3156   -1.2577 H         1 <0>         0.4291
@<TRIPOS>BOND
     1    1    2 1
     2    1   21 1
     3    1   22 1
     4    1   23 1
     5    2    3 1
     6    2   24 1
     7    2   25 1
     8    3    4 1
     9    3   26 1
    10    3   27 1
    11    4    5 1
    12    4   28 1
    13    4   36 1
    14    5    6 1
    15    5    7 1
    16    5    8 1
    17    7   29 1
    18    7   30 1
    19    7   31 1
    20    8   12 1
    21    8    9 2
    22    9   10 1
    23    9   32 1
    24   10   11 1
    25   11   12 2
    26   11   13 1
    27   13   18 ar
    28   13   14 ar
    29   14   15 ar
    30   14   33 1
    31   15   16 ar
    32   15   34 1
    33   16   17 ar
    34   16   35 1
    35   17   18 ar
    36   17   20 1
    37   18   19 1
@<TRIPOS>MOLECULE
ZINC09751995
   29    31     0     0     0
SMALL
USER_CHARGES
2-(3-chlorophenyl)-N-cyclopropyl-thiazole-4-carboxamide
@<TRIPOS>ATOM
      1 C1         -3.5519    2.5839    0.0336 C.ar      1 <0>        -0.1040
      2 C2         -2.4736    1.7228    0.0181 C.ar      1 <0>        -0.0672
      3 C3         -1.1756    2.2342    0.0201 C.ar      1 <0>        -0.0029
      4 C4         -0.9759    3.6150    0.0266 C.ar      1 <0>        -0.0862
      5 C5         -2.0628    4.4665    0.0367 C.ar      1 <0>        -0.0331
      6 C6         -3.3485    3.9519    0.0400 C.ar      1 <0>        -0.0898
      7 Cl1        -1.8172    6.1850    0.0448 Cl        1 <0>        -0.0558
      8 C7         -0.0158    1.3161    0.0093 C.2       1 <0>         0.1299
      9 N1          0.0021   -0.0041    0.0020 N.2       1 <0>        -0.4676
     10 C8          1.1587   -0.6493   -0.0125 C.2       1 <0>        -0.0053
     11 C9          2.3266    0.0725   -0.0198 C.2       1 <0>        -0.1531
     12 S1          1.7275    1.7025   -0.0053 S.3       1 <0>         0.1197
     13 C10         1.1915   -2.1220   -0.0212 C.2       1 <0>         0.5959
     14 O1          2.2581   -2.7064   -0.0350 O.2       1 <0>        -0.5314
     15 N2          0.0397   -2.8218   -0.0139 N.am      1 <0>        -0.6848
     16 C11         0.0724   -4.2864   -0.0226 C.3       1 <0>         0.0746
     17 C12        -0.9031   -5.0093   -0.9535 C.3       1 <0>        -0.1906
     18 C13        -1.1358   -5.0235    0.5587 C.3       1 <0>        -0.1864
     19 H1         -4.5570    2.1887    0.0362 H         1 <0>         0.1434
     20 H2         -2.6343    0.6549    0.0086 H         1 <0>         0.1423
     21 H3          0.0265    4.0169    0.0233 H         1 <0>         0.1387
     22 H4         -4.1957    4.6216    0.0472 H         1 <0>         0.1416
     23 H5          3.3474   -0.2800   -0.0309 H         1 <0>         0.2136
     24 H6         -0.8109   -2.3557   -0.0029 H         1 <0>         0.4110
     25 H7          1.0546   -4.7356    0.1247 H         1 <0>         0.1400
     26 H8         -1.5693   -4.3952   -1.5595 H         1 <0>         0.0979
     27 H9         -0.5628   -5.9343   -1.4190 H         1 <0>         0.1048
     28 H10        -0.9486   -5.9577    1.0880 H         1 <0>         0.1060
     29 H11        -1.9549   -4.4186    0.9478 H         1 <0>         0.0985
@<TRIPOS>BOND
     1    1    6 ar
     2    1    2 ar
     3    1   19 1
     4    2    3 ar
     5    2   20 1
     6    3    4 ar
     7    3    8 1
     8    4    5 ar
     9    4   21 1
    10    5    6 ar
    11    5    7 1
    12    6   22 1
    13    8   12 1
    14    8    9 2
    15    9   10 1
    16   10   11 2
    17   10   13 1
    18   11   12 1
    19   11   23 1
    20   13   14 2
    21   13   15 am
    22   15   16 1
    23   15   24 1
    24   16   18 1
    25   16   17 1
    26   16   25 1
    27   17   18 1
    28   17   26 1
    29   17   27 1
    30   18   28 1
    31   18   29 1
@<TRIPOS>MOLECULE
ZINC86583952
   34    35     0     0     0
SMALL
USER_CHARGES

@<TRIPOS>ATOM
      1 C1         -0.0187    1.5258    0.0104 C.3       1 <0>        -0.1799
      2 C2          0.0021   -0.0041    0.0020 C.3       1 <0>         0.1156
      3 H1          0.5123   -0.3556   -0.8948 H         1 <0>         0.1506
      4 C3         -1.4117   -0.5257    0.0127 C.2       1 <0>         0.0032
      5 C4         -2.0951   -0.6636   -1.1539 C.2       1 <0>        -0.1792
      6 S1         -3.6546   -1.2975   -0.5501 S.3       1 <0>         0.1001
      7 C5         -3.2273   -1.3096    1.1861 C.2       1 <0>         0.1915
      8 N1         -1.9833   -0.8527    1.1485 N.2       1 <0>        -0.5380
      9 C6         -4.0404   -1.7222    2.3495 C.ar      1 <0>        -0.0701
     10 C7         -3.5082   -1.6453    3.6378 C.ar      1 <0>        -0.0175
     11 C8         -4.2694   -2.0304    4.7206 C.ar      1 <0>        -0.2017
     12 C9         -5.5641   -2.4952    4.5318 C.ar      1 <0>         0.1767
     13 C10        -6.0979   -2.5735    3.2512 C.ar      1 <0>        -0.0714
     14 C11        -5.3443   -2.1844    2.1632 C.ar      1 <0>        -0.0361
     15 Cl1        -7.7171   -3.1559    3.0209 Cl        1 <0>        -0.0293
     16 O1         -6.3107   -2.8747    5.6017 O.3       1 <0>        -0.2941
     17 C12        -5.7000   -2.7689    6.8893 C.3       1 <0>         0.0199
     18 N2          0.7126   -0.4907    1.1921 N.4       1 <0>        -0.5005
     19 C13         2.1220   -0.0825    1.1220 C.3       1 <0>        -0.0522
     20 H2          1.0039    1.9031    0.0027 H         1 <0>         0.0896
     21 H3         -0.5459    1.8868   -0.8726 H         1 <0>         0.1065
     22 H4         -0.5289    1.8773    0.9072 H         1 <0>         0.0839
     23 H5         -1.7830   -0.4494   -2.1653 H         1 <0>         0.2097
     24 H6         -2.5011   -1.2846    3.7860 H         1 <0>         0.1412
     25 H7         -3.8579   -1.9710    5.7174 H         1 <0>         0.1509
     26 H8         -5.7610   -2.2412    1.1685 H         1 <0>         0.1462
     27 H9         -4.8063   -3.3922    6.9199 H         1 <0>         0.0637
     28 H10        -5.4256   -1.7309    7.0771 H         1 <0>         0.0639
     29 H11        -6.4023   -3.1030    7.6530 H         1 <0>         0.1128
     30 H12         0.2896   -0.0986    2.0201 H         1 <0>         0.4343
     31 H13         2.6492   -0.4436    2.0051 H         1 <0>         0.1283
     32 H14         2.5788   -0.5061    0.2276 H         1 <0>         0.1243
     33 H15         2.1837    1.0050    1.0814 H         1 <0>         0.1255
     34 H16         0.6554   -1.4974    1.2298 H         1 <0>         0.4316
@<TRIPOS>BOND
     1    1    2 1
     2    1   20 1
     3    1   21 1
     4    1   22 1
     5    2    3 1
     6    2    4 1
     7    2   18 1
     8    4    8 1
     9    4    5 2
    10    5    6 1
    11    5   23 1
    12    6    7 1
    13    7    8 2
    14    7    9 1
    15    9   14 ar
    16    9   10 ar
    17   10   11 ar
    18   10   24 1
    19   11   12 ar
    20   11   25 1
    21   12   13 ar
    22   12   16 1
    23   13   14 ar
    24   13   15 1
    25   14   26 1
    26   16   17 1
    27   17   27 1
    28   17   28 1
    29   17   29 1
    30   18   19 1
    31   18   30 1
    32   18   34 1
    33   19   31 1
    34   19   32 1
    35   19   33 1
@<TRIPOS>MOLECULE
ZINC86583950
   34    35     0     0     0
SMALL
USER_CHARGES

@<TRIPOS>ATOM
      1 C1         -0.0187    1.5258    0.0104 C.3       1 <0>        -0.1800
      2 C2          0.0021   -0.0041    0.0020 C.3       1 <0>         0.1156
      3 H1          0.5123   -0.3556   -0.8948 H         1 <0>         0.1506
      4 C3          0.7309   -0.5033    1.2229 C.2       1 <0>         0.0031
      5 C4          2.0857   -0.6102    1.2105 C.2       1 <0>        -0.1792
      6 S1          2.3833   -1.2282    2.8621 S.3       1 <0>         0.1003
      7 C5          0.6750   -1.2766    3.3877 C.2       1 <0>         0.1913
      8 N1          0.0586   -0.8304    2.3020 N.2       1 <0>        -0.5379
      9 C6          0.1042   -1.6966    4.6849 C.ar      1 <0>        -0.0700
     10 C7         -1.2769   -1.6618    4.8858 C.ar      1 <0>        -0.0175
     11 C8         -1.8061   -2.0546    6.0965 C.ar      1 <0>        -0.2017
     12 C9         -0.9676   -2.4841    7.1165 C.ar      1 <0>         0.1767
     13 C10         0.4077   -2.5203    6.9211 C.ar      1 <0>        -0.0714
     14 C11         0.9442   -2.1343    5.7102 C.ar      1 <0>        -0.0362
     15 Cl1         1.4514   -3.0577    8.2000 Cl        1 <0>        -0.0293
     16 O1         -1.4931   -2.8695    8.3087 O.3       1 <0>        -0.2941
     17 C12        -2.9145   -2.8070    8.4418 C.3       1 <0>         0.0199
     18 N2         -1.3761   -0.5125    0.0124 N.4       1 <0>        -0.5005
     19 C13        -2.0500   -0.1262   -1.2343 C.3       1 <0>        -0.0522
     20 H2          1.0039    1.9031    0.0027 H         1 <0>         0.1065
     21 H3         -0.5459    1.8868   -0.8726 H         1 <0>         0.0896
     22 H4         -0.5289    1.8773    0.9072 H         1 <0>         0.0839
     23 H5          2.7880   -0.3847    0.4216 H         1 <0>         0.2097
     24 H6         -1.9301   -1.3272    4.0934 H         1 <0>         0.1411
     25 H7         -2.8745   -2.0278    6.2521 H         1 <0>         0.1509
     26 H8          2.0128   -2.1668    5.5571 H         1 <0>         0.1462
     27 H9         -3.2485   -1.7802    8.2927 H         1 <0>         0.0639
     28 H10        -3.3780   -3.4518    7.6952 H         1 <0>         0.0637
     29 H11        -3.2011   -3.1412    9.4389 H         1 <0>         0.1129
     30 H12        -1.3629   -1.5185    0.0898 H         1 <0>         0.4316
     31 H13        -3.0726   -0.5034   -1.2266 H         1 <0>         0.1283
     32 H14        -2.0643    0.9605   -1.3179 H         1 <0>         0.1255
     33 H15        -1.5132   -0.5489   -2.0836 H         1 <0>         0.1244
     34 H16        -1.8730   -0.1212    0.7986 H         1 <0>         0.4343
@<TRIPOS>BOND
     1    1    2 1
     2    1   20 1
     3    1   21 1
     4    1   22 1
     5    2    3 1
     6    2    4 1
     7    2   18 1
     8    4    8 1
     9    4    5 2
    10    5    6 1
    11    5   23 1
    12    6    7 1
    13    7    8 2
    14    7    9 1
    15    9   14 ar
    16    9   10 ar
    17   10   11 ar
    18   10   24 1
    19   11   12 ar
    20   11   25 1
    21   12   13 ar
    22   12   16 1
    23   13   14 ar
    24   13   15 1
    25   14   26 1
    26   16   17 1
    27   17   27 1
    28   17   28 1
    29   17   29 1
    30   18   19 1
    31   18   30 1
    32   18   34 1
    33   19   31 1
    34   19   32 1
    35   19   33 1
@<TRIPOS>MOLECULE
ZINC40999667
   33    34     0     0     0
SMALL
USER_CHARGES

@<TRIPOS>ATOM
      1 C1         -0.0187    1.5258    0.0104 C.3       1 <0>        -0.1567
      2 C2          0.0021   -0.0041    0.0020 C.3       1 <0>        -0.1515
      3 C3          0.7182   -0.4975   -1.2568 C.3       1 <0>        -0.0103
      4 N1          0.7381   -1.9663   -1.2649 N.4       1 <0>        -0.5087
      5 C4          1.4257   -2.4401   -2.4735 C.3       1 <0>         0.0781
      6 C5          1.4462   -3.9469   -2.4818 C.2       1 <0>        -0.0108
      7 C6          0.4883   -4.6370   -3.1554 C.2       1 <0>        -0.1762
      8 S1          1.0003   -6.3188   -2.8267 S.3       1 <0>         0.1085
      9 C7          2.4306   -5.9201   -1.8305 C.2       1 <0>         0.1741
     10 N2          2.3921   -4.5950   -1.8430 N.2       1 <0>        -0.5000
     11 C8          3.3983   -6.8246   -1.1737 C.ar      1 <0>        -0.0207
     12 C9          4.4537   -6.2980   -0.4275 C.ar      1 <0>        -0.0447
     13 C10         5.3543   -7.1452    0.1836 C.ar      1 <0>        -0.1245
     14 C11         5.2136   -8.5177    0.0585 C.ar      1 <0>         0.1051
     15 C12         4.1665   -9.0477   -0.6820 C.ar      1 <0>         0.0778
     16 C13         3.2560   -8.2076   -1.2930 C.ar      1 <0>        -0.0954
     17 F1          4.0341  -10.3870   -0.8007 F         1 <0>        -0.1141
     18 F2          6.0990   -9.3428    0.6589 F         1 <0>        -0.1124
     19 H1          1.0039    1.9031    0.0027 H         1 <0>         0.0677
     20 H2         -0.5459    1.8868   -0.8726 H         1 <0>         0.0675
     21 H3         -0.5289    1.8773    0.9072 H         1 <0>         0.0778
     22 H4          0.5293   -0.3651    0.8851 H         1 <0>         0.0864
     23 H5         -1.0205   -0.3814    0.0098 H         1 <0>         0.0862
     24 H6          0.1910   -0.1364   -2.1398 H         1 <0>         0.1333
     25 H7          1.7408   -0.1202   -1.2645 H         1 <0>         0.1335
     26 H8          1.2261   -2.3006   -0.4474 H         1 <0>         0.4312
     27 H9          0.8985   -2.0790   -3.3565 H         1 <0>         0.1466
     28 H10         2.4483   -2.0628   -2.4812 H         1 <0>         0.1460
     29 H11        -0.3500   -4.2711   -3.7298 H         1 <0>         0.2125
     30 H12         4.5653   -5.2283   -0.3291 H         1 <0>         0.1534
     31 H13         6.1712   -6.7377    0.7607 H         1 <0>         0.1617
     32 H14         2.4385   -8.6201   -1.8656 H         1 <0>         0.1522
     33 H15        -0.2085   -2.3156   -1.2577 H         1 <0>         0.4264
@<TRIPOS>BOND
     1    1    2 1
     2    1   19 1
     3    1   20 1
     4    1   21 1
     5    2    3 1
     6    2   22 1
     7    2   23 1
     8    3    4 1
     9    3   24 1
    10    3   25 1
    11    4    5 1
    12    4   26 1
    13    4   33 1
    14    5    6 1
    15    5   27 1
    16    5   28 1
    17    6   10 1
    18    6    7 2
    19    7    8 1
    20    7   29 1
    21    8    9 1
    22    9   10 2
    23    9   11 1
    24   11   16 ar
    25   11   12 ar
    26   12   13 ar
    27   12   30 1
    28   13   14 ar
    29   13   31 1
    30   14   15 ar
    31   14   18 1
    32   15   16 ar
    33   15   17 1
    34   16   32 1
@<TRIPOS>MOLECULE
ZINC51596249
   33    34     0     0     0
SMALL
USER_CHARGES

@<TRIPOS>ATOM
      1 C1         -0.0187    1.5258    0.0104 C.3       1 <0>        -0.1900
      2 C2          0.0021   -0.0041    0.0020 C.3       1 <0>        -0.0095
      3 N1         -1.3761   -0.5125    0.0124 N.4       1 <0>        -0.5090
      4 C3         -1.3562   -1.9814    0.0044 C.3       1 <0>         0.0787
      5 C4         -2.7700   -2.5030    0.0151 C.2       1 <0>        -0.0113
      6 C5         -3.3825   -2.8334   -1.1525 C.2       1 <0>        -0.1930
      7 S1         -4.9779   -3.3700   -0.5480 S.3       1 <0>         0.1235
      8 C6         -4.6556   -3.0964    1.1893 C.2       1 <0>         0.1738
      9 N2         -3.4100   -2.6442    1.1523 N.2       1 <0>        -0.5057
     10 C7         -5.5385   -3.3196    2.3538 C.ar      1 <0>        -0.0809
     11 C8         -5.0862   -3.0310    3.6421 C.ar      1 <0>        -0.0325
     12 C9         -5.9149   -3.2410    4.7246 C.ar      1 <0>        -0.1319
     13 C10        -7.1931   -3.7373    4.5367 C.ar      1 <0>        -0.0175
     14 C11        -7.6496   -4.0261    3.2639 C.ar      1 <0>        -0.1523
     15 C12        -6.8321   -3.8152    2.1693 C.ar      1 <0>         0.1356
     16 F1         -7.2805   -4.0921    0.9253 F         1 <0>        -0.1241
     17 C13        -8.0914   -3.9646    5.7252 C.3       1 <0>        -0.1287
     18 H1          1.0039    1.9031    0.0027 H         1 <0>         0.1081
     19 H2         -0.5459    1.8868   -0.8726 H         1 <0>         0.0804
     20 H3         -0.5289    1.8773    0.9072 H         1 <0>         0.0806
     21 H4          0.5123   -0.3556   -0.8948 H         1 <0>         0.1324
     22 H5          0.5293   -0.3651    0.8851 H         1 <0>         0.1325
     23 H6         -1.8484   -0.1871    0.8426 H         1 <0>         0.4307
     24 H7         -0.8460   -2.3329   -0.8924 H         1 <0>         0.1454
     25 H8         -0.8290   -2.3425    0.8874 H         1 <0>         0.1446
     26 H9         -3.0094   -2.7847   -2.1649 H         1 <0>         0.2097
     27 H10        -4.0889   -2.6443    3.7913 H         1 <0>         0.1450
     28 H11        -5.5652   -3.0177    5.7217 H         1 <0>         0.1441
     29 H12        -8.6481   -4.4135    3.1243 H         1 <0>         0.1508
     30 H13        -8.6673   -3.0606    5.9235 H         1 <0>         0.0862
     31 H14        -8.7716   -4.7897    5.5140 H         1 <0>         0.0784
     32 H15        -7.4851   -4.2078    6.5977 H         1 <0>         0.0797
     33 H16        -1.8641   -0.1783   -0.8050 H         1 <0>         0.4260
@<TRIPOS>BOND
     1    1    2 1
     2    1   18 1
     3    1   19 1
     4    1   20 1
     5    2    3 1
     6    2   21 1
     7    2   22 1
     8    3    4 1
     9    3   23 1
    10    3   33 1
    11    4    5 1
    12    4   24 1
    13    4   25 1
    14    5    9 1
    15    5    6 2
    16    6    7 1
    17    6   26 1
    18    7    8 1
    19    8    9 2
    20    8   10 1
    21   10   15 ar
    22   10   11 ar
    23   11   12 ar
    24   11   27 1
    25   12   13 ar
    26   12   28 1
    27   13   14 ar
    28   13   17 1
    29   14   15 ar
    30   14   29 1
    31   15   16 1
    32   17   30 1
    33   17   31 1
    34   17   32 1
@<TRIPOS>MOLECULE
ZINC62938472
   34    36     0     0     0
SMALL
USER_CHARGES

@<TRIPOS>ATOM
      1 C1         -0.0166    1.3757    0.0096 C.ar      1 <0>        -0.1097
      2 C2          1.1704    2.0862    0.0021 C.ar      1 <0>        -0.0901
      3 C3          2.3818    1.4190   -0.0135 C.ar      1 <0>        -0.1717
      4 C4          2.4125    0.0390   -0.0216 C.ar      1 <0>        -0.0649
      5 C5          1.2200   -0.6818   -0.0136 C.ar      1 <0>        -0.0093
      6 C6          0.0021   -0.0041    0.0020 C.ar      1 <0>        -0.0728
      7 C7          1.2465   -2.1651   -0.0228 C.2       1 <0>         0.0813
      8 C8          0.0758   -2.8777   -0.0202 C.2       1 <0>        -0.1848
      9 S1          0.7066   -4.5509   -0.0348 S.3       1 <0>         0.0708
     10 C9          2.4446   -4.1331   -0.0427 C.2       1 <0>         0.1592
     11 N1          2.3978   -2.8105   -0.0390 N.2       1 <0>        -0.4945
     12 C10         3.6218   -5.0276   -0.0548 C.ar      1 <0>        -0.0227
     13 C11         4.9099   -4.4899   -0.0530 C.ar      1 <0>        -0.0373
     14 C12         6.0049   -5.3281   -0.0639 C.ar      1 <0>        -0.1414
     15 C13         5.8287   -6.7026   -0.0771 C.ar      1 <0>         0.1383
     16 C14         4.5515   -7.2426   -0.0794 C.ar      1 <0>        -0.0738
     17 C15         3.4489   -6.4122   -0.0623 C.ar      1 <0>        -0.0533
     18 Cl1         4.3389   -8.9654   -0.0971 Cl        1 <0>        -0.0257
     19 F1          6.9049   -7.5192   -0.0882 F         1 <0>        -0.1140
     20 C16         3.6706    2.2000   -0.0221 C.3       1 <0>         0.0488
     21 N2          4.1031    2.4464    1.3600 N.4       1 <0>        -0.6372
     22 H1         -0.9597    1.9018    0.0259 H         1 <0>         0.1410
     23 H2          1.1511    3.1660    0.0080 H         1 <0>         0.1341
     24 H3          3.3590   -0.4810   -0.0345 H         1 <0>         0.1417
     25 H4         -0.9252   -0.5578    0.0082 H         1 <0>         0.1373
     26 H5         -0.9453   -2.5260   -0.0114 H         1 <0>         0.2055
     27 H6          5.0488   -3.4189   -0.0435 H         1 <0>         0.1493
     28 H7          7.0018   -4.9126   -0.0625 H         1 <0>         0.1570
     29 H8          2.4544   -6.8333   -0.0596 H         1 <0>         0.1495
     30 H9          4.4374    1.6299   -0.5466 H         1 <0>         0.1404
     31 H10         3.5150    3.1521   -0.5293 H         1 <0>         0.1412
     32 H11         3.3933    2.9741    1.8455 H         1 <0>         0.4346
     33 H12         4.2471    1.5650    1.8296 H         1 <0>         0.4350
     34 H13         4.9660    2.9693    1.3543 H         1 <0>         0.4380
@<TRIPOS>BOND
     1    1    6 ar
     2    1    2 ar
     3    1   22 1
     4    2    3 ar
     5    2   23 1
     6    3    4 ar
     7    3   20 1
     8    4    5 ar
     9    4   24 1
    10    5    6 ar
    11    5    7 1
    12    6   25 1
    13    7   11 1
    14    7    8 2
    15    8    9 1
    16    8   26 1
    17    9   10 1
    18   10   11 2
    19   10   12 1
    20   12   17 ar
    21   12   13 ar
    22   13   14 ar
    23   13   27 1
    24   14   15 ar
    25   14   28 1
    26   15   16 ar
    27   15   19 1
    28   16   17 ar
    29   16   18 1
    30   17   29 1
    31   20   21 1
    32   20   30 1
    33   20   31 1
    34   21   32 1
    35   21   33 1
    36   21   34 1
@<TRIPOS>MOLECULE
ZINC70118249
   34    35     0     0     0
SMALL
USER_CHARGES

@<TRIPOS>ATOM
      1 C1         -0.0187    1.5258    0.0104 C.3       1 <0>        -0.1399
      2 C2          0.0021   -0.0041    0.0020 C.3       1 <0>         0.2231
      3 C3          0.7421   -0.5109    1.2415 C.3       1 <0>        -0.1805
      4 C4         -1.3789   -0.5136    0.0125 C.1       1 <0>        -0.1787
      5 C5         -2.4803   -0.9199    0.0208 C.1       1 <0>        -0.1858
      6 N1          0.6897   -0.4778   -1.2066 N.3       1 <0>        -0.6715
      7 C6          2.0738    0.0123   -1.2511 C.3       1 <0>         0.1244
      8 C7          2.7456   -0.4929   -2.5020 C.2       1 <0>         0.0570
      9 C8          2.7829    0.2848   -3.6161 C.2       1 <0>        -0.1731
     10 S1          3.6699   -0.7887   -4.7384 S.3       1 <0>         0.0187
     11 C9          3.8935   -2.1526   -3.6040 C.2       1 <0>         0.1523
     12 N2          3.3002   -1.6824   -2.5156 N.2       1 <0>        -0.4915
     13 C10         4.5642   -3.4524   -3.8199 C.ar      1 <0>        -0.0273
     14 C11         4.6220   -4.3905   -2.7882 C.ar      1 <0>        -0.0412
     15 C12         5.2488   -5.6014   -2.9948 C.ar      1 <0>        -0.1536
     16 C13         5.8212   -5.8873   -4.2242 C.ar      1 <0>         0.1196
     17 C14         5.7666   -4.9593   -5.2521 C.ar      1 <0>        -0.1507
     18 C15         5.1367   -3.7478   -5.0579 C.ar      1 <0>        -0.0623
     19 F1          6.4348   -7.0746   -4.4212 F         1 <0>        -0.1325
     20 H1          1.0039    1.9031    0.0027 H         1 <0>         0.0659
     21 H2         -0.5459    1.8868   -0.8726 H         1 <0>         0.0690
     22 H3         -0.5289    1.8773    0.9072 H         1 <0>         0.0653
     23 H4          0.2319   -0.1594    2.1383 H         1 <0>         0.0681
     24 H5          0.7568   -1.6008    1.2356 H         1 <0>         0.0607
     25 H6          1.7647   -0.1336    1.2338 H         1 <0>         0.0695
     26 H7         -3.4654   -1.2834    0.0283 H         1 <0>         0.2188
     27 H8          0.6604   -1.4845   -1.2682 H         1 <0>         0.3498
     28 H9          2.0734    1.1023   -1.2538 H         1 <0>         0.0944
     29 H10         2.6153   -0.3487   -0.3768 H         1 <0>         0.0559
     30 H11         2.3865    1.2762   -3.7788 H         1 <0>         0.2013
     31 H12         4.1769   -4.1684   -1.8295 H         1 <0>         0.1458
     32 H13         5.2941   -6.3280   -2.1971 H         1 <0>         0.1451
     33 H14         6.2142   -5.1870   -6.2082 H         1 <0>         0.1458
     34 H15         5.0905   -3.0273   -5.8611 H         1 <0>         0.1380
@<TRIPOS>BOND
     1    1    2 1
     2    1   20 1
     3    1   21 1
     4    1   22 1
     5    2    3 1
     6    2    4 1
     7    2    6 1
     8    3   23 1
     9    3   24 1
    10    3   25 1
    11    4    5 3
    12    5   26 1
    13    6    7 1
    14    6   27 1
    15    7    8 1
    16    7   28 1
    17    7   29 1
    18    8   12 1
    19    8    9 2
    20    9   10 1
    21    9   30 1
    22   10   11 1
    23   11   12 2
    24   11   13 1
    25   13   18 ar
    26   13   14 ar
    27   14   15 ar
    28   14   31 1
    29   15   16 ar
    30   15   32 1
    31   16   17 ar
    32   16   19 1
    33   17   18 ar
    34   17   33 1
    35   18   34 1
@<TRIPOS>MOLECULE
ZINC70118249
   35    36     0     0     0
SMALL
USER_CHARGES

@<TRIPOS>ATOM
      1 C1         -0.0187    1.5258    0.0104 C.3       1 <0>        -0.1762
      2 C2          0.0021   -0.0041    0.0020 C.3       1 <0>         0.1989
      3 C3          0.7421   -0.5109    1.2415 C.3       1 <0>        -0.1759
      4 C4         -1.3789   -0.5136    0.0125 C.1       1 <0>        -0.2888
      5 C5         -2.4803   -0.9199    0.0208 C.1       1 <0>        -0.0515
      6 N1          0.6897   -0.4778   -1.2066 N.4       1 <0>        -0.5040
      7 C6          2.0678    0.0307   -1.2170 C.3       1 <0>         0.0683
      8 C7          2.7732   -0.4553   -2.4569 C.2       1 <0>        -0.0058
      9 C8          2.8244    0.3320   -3.5638 C.2       1 <0>        -0.1812
     10 S1          3.7497   -0.7206   -4.6749 S.3       1 <0>         0.0975
     11 C9          3.9666   -2.0907   -3.5468 C.2       1 <0>         0.1838
     12 N2          3.3437   -1.6374   -2.4680 N.2       1 <0>        -0.5070
     13 C10         4.6590   -3.3798   -3.7585 C.ar      1 <0>        -0.0544
     14 C11         4.7068   -4.3256   -2.7332 C.ar      1 <0>        -0.0331
     15 C12         5.3540   -5.5265   -2.9359 C.ar      1 <0>        -0.1555
     16 C13         5.9566   -5.7947   -4.1547 C.ar      1 <0>         0.1390
     17 C14         5.9120   -4.8590   -5.1761 C.ar      1 <0>        -0.1500
     18 C15         5.2621   -3.6575   -4.9860 C.ar      1 <0>        -0.0533
     19 F1          6.5900   -6.9722   -4.3477 F         1 <0>        -0.1241
     20 H1          1.0039    1.9031    0.0027 H         1 <0>         0.0924
     21 H2         -0.5459    1.8868   -0.8726 H         1 <0>         0.0862
     22 H3         -0.5289    1.8773    0.9072 H         1 <0>         0.1107
     23 H4          0.2319   -0.1594    2.1383 H         1 <0>         0.1100
     24 H5          0.7568   -1.6008    1.2356 H         1 <0>         0.0866
     25 H6          1.7647   -0.1336    1.2338 H         1 <0>         0.0926
     26 H7         -3.4654   -1.2834    0.0283 H         1 <0>         0.2375
     27 H8          0.7033   -1.4867   -1.2121 H         1 <0>         0.4321
     28 H9          2.0530    1.1205   -1.2110 H         1 <0>         0.1501
     29 H10         2.5950   -0.3304   -0.3340 H         1 <0>         0.1504
     30 H11         2.4186    1.3194   -3.7271 H         1 <0>         0.2111
     31 H12         4.2381   -4.1173   -1.7828 H         1 <0>         0.1455
     32 H13         5.3916   -6.2590   -2.1432 H         1 <0>         0.1501
     33 H14         6.3832   -5.0730   -6.1240 H         1 <0>         0.1518
     34 H15         5.2238   -2.9310   -5.7843 H         1 <0>         0.1394
     35 H16         0.2017   -0.1436   -2.0240 H         1 <0>         0.4270
@<TRIPOS>BOND
     1    1    2 1
     2    1   20 1
     3    1   21 1
     4    1   22 1
     5    2    3 1
     6    2    4 1
     7    2    6 1
     8    3   23 1
     9    3   24 1
    10    3   25 1
    11    4    5 3
    12    5   26 1
    13    6    7 1
    14    6   27 1
    15    6   35 1
    16    7    8 1
    17    7   28 1
    18    7   29 1
    19    8   12 1
    20    8    9 2
    21    9   10 1
    22    9   30 1
    23   10   11 1
    24   11   12 2
    25   11   13 1
    26   13   18 ar
    27   13   14 ar
    28   14   15 ar
    29   14   31 1
    30   15   16 ar
    31   15   32 1
    32   16   17 ar
    33   16   19 1
    34   17   18 ar
    35   17   33 1
    36   18   34 1
@<TRIPOS>MOLECULE
ZINC33727365
   28    30     0     0     0
SMALL
USER_CHARGES
2-(4-chlorophenyl)-4-(4-fluorophenyl)thiazole
@<TRIPOS>ATOM
      1 C1          7.2410    0.5007   -0.0555 C.ar      1 <0>        -0.0751
      2 C2          8.5118    1.0381   -0.0700 C.ar      1 <0>        -0.1527
      3 C3          8.6850    2.4126   -0.0650 C.ar      1 <0>         0.1063
      4 C4          7.5842    3.2536   -0.0504 C.ar      1 <0>        -0.1549
      5 C5          6.3096    2.7250   -0.0412 C.ar      1 <0>        -0.0562
      6 C6          6.1307    1.3429   -0.0466 C.ar      1 <0>        -0.0390
      7 C7          4.7622    0.7698   -0.0368 C.2       1 <0>         0.1020
      8 C8          4.5814   -0.5888   -0.0420 C.2       1 <0>        -0.1912
      9 S1          2.7958   -0.6852   -0.0266 S.3       1 <0>         0.0347
     10 C9          2.4784    1.0739   -0.0148 C.2       1 <0>         0.1579
     11 N1          3.7079    1.5637   -0.0292 N.2       1 <0>        -0.4881
     12 C10         1.1856    1.7914    0.0004 C.ar      1 <0>        -0.0148
     13 C11        -0.0126    1.0758    0.0080 C.ar      1 <0>        -0.0782
     14 C12        -1.2156    1.7506    0.0173 C.ar      1 <0>        -0.1074
     15 C13        -1.2359    3.1351    0.0293 C.ar      1 <0>        -0.0170
     16 C14        -0.0502    3.8505    0.0223 C.ar      1 <0>        -0.1099
     17 C15         1.1588    3.1867    0.0076 C.ar      1 <0>        -0.0566
     18 Cl1        -2.7537    3.9774    0.0471 Cl        1 <0>        -0.0578
     19 F1          9.9311    2.9344   -0.0740 F         1 <0>        -0.1368
     20 H1          7.1069   -0.5709   -0.0552 H         1 <0>         0.1354
     21 H2          9.3728    0.3862   -0.0814 H         1 <0>         0.1408
     22 H3          7.7238    4.3245   -0.0459 H         1 <0>         0.1399
     23 H4          5.4520    3.3813   -0.0294 H         1 <0>         0.1430
     24 H5          5.3145   -1.3818   -0.0529 H         1 <0>         0.2037
     25 H6          0.0021   -0.0041    0.0020 H         1 <0>         0.1377
     26 H7         -2.1435    1.1979    0.0190 H         1 <0>         0.1442
     27 H8         -0.0722    4.9302    0.0279 H         1 <0>         0.1439
     28 H9          2.0829    3.7456    0.0014 H         1 <0>         0.1461
@<TRIPOS>BOND
     1    1    6 ar
     2    1    2 ar
     3    1   20 1
     4    2    3 ar
     5    2   21 1
     6    3    4 ar
     7    3   19 1
     8    4    5 ar
     9    4   22 1
    10    5    6 ar
    11    5   23 1
    12    6    7 1
    13    7   11 1
    14    7    8 2
    15    8    9 1
    16    8   24 1
    17    9   10 1
    18   10   11 2
    19   10   12 1
    20   12   17 ar
    21   12   13 ar
    22   13   14 ar
    23   13   25 1
    24   14   15 ar
    25   14   26 1
    26   15   16 ar
    27   15   18 1
    28   16   17 ar
    29   16   27 1
    30   17   28 1
@<TRIPOS>MOLECULE
ZINC40419338
   37    39     0     0     0
SMALL
USER_CHARGES

@<TRIPOS>ATOM
      1 C1         -0.0187    1.5258    0.0104 C.3       1 <0>        -0.1489
      2 C2          0.0021   -0.0041    0.0020 C.3       1 <0>        -0.0962
      3 C3         -1.4117   -0.5257    0.0127 C.ar      1 <0>        -0.0408
      4 C4         -2.0484   -0.7651    1.2175 C.ar      1 <0>        -0.1151
      5 C5         -3.3429   -1.2422    1.2342 C.ar      1 <0>        -0.0784
      6 C6         -4.0099   -1.4833    0.0324 C.ar      1 <0>        -0.0510
      7 C7         -3.3621   -1.2397   -1.1793 C.ar      1 <0>        -0.0580
      8 C8         -2.0693   -0.7576   -1.1822 C.ar      1 <0>        -0.1206
      9 C9         -5.3972   -1.9951    0.0429 C.2       1 <0>         0.1900
     10 N1         -6.1928   -2.2902   -0.9755 N.2       1 <0>        -0.5116
     11 C10        -7.4104   -2.7391   -0.7811 C.2       1 <0>        -0.0084
     12 C11        -7.8758   -2.9090    0.4850 C.2       1 <0>        -0.1850
     13 S1         -6.4505   -2.3901    1.4327 S.3       1 <0>         0.0894
     14 C12        -8.2916   -3.0654   -1.9593 C.3       1 <0>         0.0833
     15 N2         -8.9664   -1.8443   -2.4191 N.4       1 <0>        -0.4781
     16 C13        -9.8254   -2.1624   -3.5675 C.3       1 <0>        -0.0841
     17 C14        -9.4822   -1.5105   -4.9085 C.3       1 <0>        -0.1535
     18 C15       -10.7078   -1.0419   -4.1216 C.3       1 <0>        -0.1540
     19 H1          1.0039    1.9031    0.0027 H         1 <0>         0.0654
     20 H2         -0.5459    1.8868   -0.8726 H         1 <0>         0.0570
     21 H3         -0.5289    1.8773    0.9072 H         1 <0>         0.0577
     22 H4          0.5123   -0.3556   -0.8948 H         1 <0>         0.0796
     23 H5          0.5293   -0.3651    0.8851 H         1 <0>         0.0801
     24 H6         -1.5309   -0.5785    2.1468 H         1 <0>         0.1372
     25 H7         -3.8387   -1.4291    2.1753 H         1 <0>         0.1286
     26 H8         -3.8728   -1.4247   -2.1128 H         1 <0>         0.1343
     27 H9         -1.5684   -0.5645   -2.1193 H         1 <0>         0.1354
     28 H10        -8.8380   -3.2629    0.8244 H         1 <0>         0.2099
     29 H11        -7.6825   -3.4703   -2.7675 H         1 <0>         0.1450
     30 H12        -9.0374   -3.8027   -1.6620 H         1 <0>         0.1455
     31 H13        -9.5303   -1.4696   -1.6710 H         1 <0>         0.4266
     32 H14       -10.2265   -3.1757   -3.5882 H         1 <0>         0.1793
     33 H15        -8.6190   -0.8456   -4.9385 H         1 <0>         0.1210
     34 H16        -9.6573   -2.0950   -5.8117 H         1 <0>         0.1344
     35 H17       -11.6892   -1.3182   -4.5071 H         1 <0>         0.1348
     36 H18       -10.6509   -0.0688   -3.6339 H         1 <0>         0.1203
     37 H19        -8.2761   -1.1618   -2.6943 H         1 <0>         0.4285
@<TRIPOS>BOND
     1    1    2 1
     2    1   19 1
     3    1   20 1
     4    1   21 1
     5    2    3 1
     6    2   22 1
     7    2   23 1
     8    3    8 ar
     9    3    4 ar
    10    4    5 ar
    11    4   24 1
    12    5    6 ar
    13    5   25 1
    14    6    7 ar
    15    6    9 1
    16    7    8 ar
    17    7   26 1
    18    8   27 1
    19    9   13 1
    20    9   10 2
    21   10   11 1
    22   11   12 2
    23   11   14 1
    24   12   13 1
    25   12   28 1
    26   14   15 1
    27   14   29 1
    28   14   30 1
    29   15   16 1
    30   15   31 1
    31   15   37 1
    32   16   18 1
    33   16   17 1
    34   16   32 1
    35   17   18 1
    36   17   33 1
    37   17   34 1
    38   18   35 1
    39   18   36 1
@<TRIPOS>MOLECULE
ZINC40419329
   40    42     0     0     0
SMALL
USER_CHARGES

@<TRIPOS>ATOM
      1 C1         -0.0187    1.5258    0.0104 C.3       1 <0>        -0.1475
      2 C2          0.0021   -0.0041    0.0020 C.3       1 <0>        -0.0656
      3 C3          0.7421   -0.5109    1.2415 C.3       1 <0>        -0.1479
      4 C4         -1.4117   -0.5257    0.0127 C.ar      1 <0>        -0.0351
      5 C5         -2.2573   -0.2021    1.0588 C.ar      1 <0>        -0.1122
      6 C6         -3.5530   -0.6760    1.0744 C.ar      1 <0>        -0.0789
      7 C7         -4.0099   -1.4834    0.0319 C.ar      1 <0>        -0.0507
      8 C8         -3.1519   -1.8061   -1.0203 C.ar      1 <0>        -0.0578
      9 C9         -1.8602   -1.3214   -1.0265 C.ar      1 <0>        -0.1205
     10 C10        -5.3971   -1.9952    0.0424 C.2       1 <0>         0.1903
     11 N1         -6.0146   -2.7703   -0.8380 N.2       1 <0>        -0.5117
     12 C11        -7.2644   -3.1325   -0.6686 C.2       1 <0>        -0.0084
     13 C12        -7.9494   -2.7107    0.4275 C.2       1 <0>        -0.1851
     14 S1         -6.6911   -1.7418    1.2501 S.3       1 <0>         0.0891
     15 C13        -7.9396   -4.0140   -1.6874 C.3       1 <0>         0.0832
     16 N2         -8.4748   -3.1842   -2.7751 N.4       1 <0>        -0.4782
     17 C14        -9.1329   -4.0435   -3.7682 C.3       1 <0>        -0.0840
     18 C15        -8.5358   -4.0809   -5.1764 C.3       1 <0>        -0.1535
     19 C16        -9.8599   -3.3564   -4.9259 C.3       1 <0>        -0.1541
     20 H1          1.0039    1.9031    0.0027 H         1 <0>         0.0654
     21 H2         -0.5459    1.8868   -0.8726 H         1 <0>         0.0575
     22 H3         -0.5289    1.8773    0.9072 H         1 <0>         0.0590
     23 H4          0.5123   -0.3556   -0.8948 H         1 <0>         0.0843
     24 H5          0.7568   -1.6008    1.2356 H         1 <0>         0.0581
     25 H6          1.7647   -0.1336    1.2338 H         1 <0>         0.0654
     26 H7          0.2319   -0.1594    2.1383 H         1 <0>         0.0590
     27 H8         -1.9024    0.4225    1.8652 H         1 <0>         0.1367
     28 H9         -4.2120   -0.4230    1.8918 H         1 <0>         0.1284
     29 H10        -3.4994   -2.4308   -1.8298 H         1 <0>         0.1341
     30 H11        -1.1965   -1.5667   -1.8424 H         1 <0>         0.1353
     31 H12        -8.9694   -2.9091    0.7220 H         1 <0>         0.2099
     32 H13        -7.2158   -4.7213   -2.0925 H         1 <0>         0.1450
     33 H14        -8.7545   -4.5601   -1.2123 H         1 <0>         0.1455
     34 H15        -9.1447   -2.5295   -2.4001 H         1 <0>         0.4266
     35 H16        -9.5644   -4.9659   -3.3795 H         1 <0>         0.1793
     36 H17        -7.6547   -3.4679   -5.3659 H         1 <0>         0.1211
     37 H18        -8.5744   -5.0281   -5.7144 H         1 <0>         0.1344
     38 H19       -10.7696   -3.8270   -5.2991 H         1 <0>         0.1349
     39 H20        -9.8499   -2.2668   -4.9506 H         1 <0>         0.1203
     40 H21        -7.7204   -2.6787   -3.2149 H         1 <0>         0.4285
@<TRIPOS>BOND
     1    1    2 1
     2    1   20 1
     3    1   21 1
     4    1   22 1
     5    2    3 1
     6    2    4 1
     7    2   23 1
     8    3   24 1
     9    3   25 1
    10    3   26 1
    11    4    9 ar
    12    4    5 ar
    13    5    6 ar
    14    5   27 1
    15    6    7 ar
    16    6   28 1
    17    7    8 ar
    18    7   10 1
    19    8    9 ar
    20    8   29 1
    21    9   30 1
    22   10   14 1
    23   10   11 2
    24   11   12 1
    25   12   13 2
    26   12   15 1
    27   13   14 1
    28   13   31 1
    29   15   16 1
    30   15   32 1
    31   15   33 1
    32   16   17 1
    33   16   34 1
    34   16   40 1
    35   17   19 1
    36   17   18 1
    37   17   35 1
    38   18   19 1
    39   18   36 1
    40   18   37 1
    41   19   38 1
    42   19   39 1
@<TRIPOS>MOLECULE
ZINC35385950
   32    33     0     0     0
SMALL
USER_CHARGES

@<TRIPOS>ATOM
      1 C1         -0.0167    1.3793    0.0096 C.ar      1 <0>        -0.0880
      2 C2          1.1684    2.0932    0.0021 C.ar      1 <0>        -0.1168
      3 C3          2.3774    1.4288   -0.0130 C.ar      1 <0>        -0.0863
      4 C4          2.4033    0.0336   -0.0208 C.ar      1 <0>        -0.0369
      5 C5          1.2044   -0.6806   -0.0131 C.ar      1 <0>        -0.0641
      6 C6          0.0021   -0.0041    0.0020 C.ar      1 <0>        -0.1200
      7 C7          3.6955   -0.6850   -0.0375 C.2       1 <0>         0.1796
      8 N1          3.9328   -1.9891   -0.0523 N.2       1 <0>        -0.5027
      9 C8          5.1581   -2.4586   -0.0660 C.2       1 <0>        -0.0010
     10 C9          6.2126   -1.6003   -0.0651 C.2       1 <0>        -0.1794
     11 S1          5.3587   -0.0288   -0.0511 S.3       1 <0>         0.0734
     12 C10         5.3961   -3.9466   -0.0821 C.3       1 <0>         0.0757
     13 N2          5.3640   -4.4625    1.2929 N.4       1 <0>        -0.5083
     14 C11         5.5960   -5.9130    1.2772 C.3       1 <0>         0.0144
     15 C12         5.5626   -6.4504    2.7093 C.3       1 <0>        -0.2168
     16 C13         5.8006   -7.9384    2.6932 C.2       1 <0>         0.4975
     17 O1          5.9803   -8.5156    1.6344 O.co2     1 <0>        -0.6866
     18 O2          5.8135   -8.5651    3.7389 O.co2     1 <0>        -0.6716
     19 H1         -0.9605    1.9041    0.0260 H         1 <0>         0.1334
     20 H2          1.1469    3.1730    0.0078 H         1 <0>         0.1357
     21 H3          3.3018    1.9873   -0.0192 H         1 <0>         0.1278
     22 H4          1.2177   -1.7605   -0.0194 H         1 <0>         0.1362
     23 H5         -0.9265   -0.5556    0.0083 H         1 <0>         0.1355
     24 H6          7.2721   -1.8094   -0.0745 H         1 <0>         0.2108
     25 H7          4.6181   -4.4326   -0.6708 H         1 <0>         0.1434
     26 H8          6.3701   -4.1540   -0.5254 H         1 <0>         0.1444
     27 H9          6.0842   -4.0126    1.8379 H         1 <0>         0.4200
     28 H10         4.8180   -6.3991    0.6885 H         1 <0>         0.1320
     29 H11         6.5700   -6.1204    0.8339 H         1 <0>         0.1319
     30 H12         6.3406   -5.9644    3.2980 H         1 <0>         0.0809
     31 H13         4.5886   -6.2430    3.1526 H         1 <0>         0.0811
     32 H14         4.4624   -4.2706    1.7032 H         1 <0>         0.4249
@<TRIPOS>BOND
     1    1    6 ar
     2    1    2 ar
     3    1   19 1
     4    2    3 ar
     5    2   20 1
     6    3    4 ar
     7    3   21 1
     8    4    5 ar
     9    4    7 1
    10    5    6 ar
    11    5   22 1
    12    6   23 1
    13    7   11 1
    14    7    8 2
    15    8    9 1
    16    9   10 2
    17    9   12 1
    18   10   11 1
    19   10   24 1
    20   12   13 1
    21   12   25 1
    22   12   26 1
    23   13   14 1
    24   13   27 1
    25   13   32 1
    26   14   15 1
    27   14   28 1
    28   14   29 1
    29   15   16 1
    30   15   30 1
    31   15   31 1
    32   16   17 2
    33   16   18 1
@<TRIPOS>MOLECULE
ZINC35385191
   32    33     0     0     0
SMALL
USER_CHARGES

@<TRIPOS>ATOM
      1 C1         -0.0184    1.5028    0.0103 C.3       1 <0>        -0.1241
      2 C2          0.0021   -0.0041    0.0020 C.ar      1 <0>        -0.0532
      3 C3          0.0057   -0.6862   -1.2016 C.ar      1 <0>        -0.1197
      4 C4          0.0249   -2.0657   -1.2161 C.ar      1 <0>        -0.0808
      5 C5          0.0405   -2.7729   -0.0132 C.ar      1 <0>        -0.0417
      6 C6          0.0368   -2.0788    1.1974 C.ar      1 <0>        -0.0582
      7 C7          0.0229   -0.6992    1.1980 C.ar      1 <0>        -0.1227
      8 C8          0.0606   -4.2514   -0.0214 C.2       1 <0>         0.1805
      9 N1          0.0718   -5.0983    0.9984 N.2       1 <0>        -0.5020
     10 C9          0.0895   -6.3962    0.8061 C.2       1 <0>         0.0030
     11 C10         0.0966   -6.8936   -0.4593 C.2       1 <0>        -0.1799
     12 S1          0.0683   -5.3786   -1.4093 S.3       1 <0>         0.0679
     13 C11         0.1024   -7.3339    1.9857 C.3       1 <0>         0.0731
     14 N2          1.4849   -7.5249    2.4443 N.4       1 <0>        -0.4825
     15 C12         1.4975   -8.4389    3.5942 C.3       1 <0>        -0.0830
     16 C13         2.9157   -8.6348    4.0647 C.2       1 <0>         0.4839
     17 O1          3.8311   -8.0657    3.4949 O.co2     1 <0>        -0.6754
     18 O2          3.1477   -9.3624    5.0151 O.co2     1 <0>        -0.6396
     19 H1          1.0042    1.8801    0.0026 H         1 <0>         0.0788
     20 H2         -0.5455    1.8639   -0.8728 H         1 <0>         0.0722
     21 H3         -0.5286    1.8543    0.9071 H         1 <0>         0.0725
     22 H4         -0.0068   -0.1377   -2.1319 H         1 <0>         0.1346
     23 H5          0.0273   -2.5970   -2.1564 H         1 <0>         0.1280
     24 H6          0.0485   -2.6203    2.1317 H         1 <0>         0.1367
     25 H7          0.0244   -0.1607    2.1343 H         1 <0>         0.1345
     26 H8          0.1111   -7.9193   -0.7971 H         1 <0>         0.2099
     27 H9         -0.4931   -6.9093    2.7939 H         1 <0>         0.1384
     28 H10        -0.3185   -8.2951    1.6905 H         1 <0>         0.1394
     29 H11         2.0362   -7.9179    1.6962 H         1 <0>         0.4252
     30 H12         0.9020   -8.0144    4.4024 H         1 <0>         0.1269
     31 H13         1.0766   -9.4001    3.2990 H         1 <0>         0.1268
     32 H14         1.8745   -6.6352    2.7176 H         1 <0>         0.4303
@<TRIPOS>BOND
     1    1    2 1
     2    1   19 1
     3    1   20 1
     4    1   21 1
     5    2    7 ar
     6    2    3 ar
     7    3    4 ar
     8    3   22 1
     9    4    5 ar
    10    4   23 1
    11    5    6 ar
    12    5    8 1
    13    6    7 ar
    14    6   24 1
    15    7   25 1
    16    8   12 1
    17    8    9 2
    18    9   10 1
    19   10   11 2
    20   10   13 1
    21   11   12 1
    22   11   26 1
    23   13   14 1
    24   13   27 1
    25   13   28 1
    26   14   15 1
    27   14   29 1
    28   14   32 1
    29   15   16 1
    30   15   30 1
    31   15   31 1
    32   16   17 2
    33   16   18 1
@<TRIPOS>MOLECULE
ZINC04090437
   28    29     0     0     0
SMALL
USER_CHARGES

@<TRIPOS>ATOM
      1 C1         -0.0184    1.5028    0.0103 C.3       1 <0>        -0.1212
      2 C2          0.0021   -0.0041    0.0020 C.ar      1 <0>        -0.0640
      3 C3          0.0057   -0.6862   -1.2016 C.ar      1 <0>        -0.1179
      4 C4          0.0244   -2.0658   -1.2159 C.ar      1 <0>        -0.0884
      5 C5          0.0401   -2.7728   -0.0132 C.ar      1 <0>        -0.0240
      6 C6          0.0368   -2.0789    1.1972 C.ar      1 <0>        -0.0665
      7 C7          0.0229   -0.6992    1.1980 C.ar      1 <0>        -0.1210
      8 C8          0.0597   -4.2518   -0.0214 C.2       1 <0>         0.1145
      9 N1          0.0707   -5.0904    0.9987 N.2       1 <0>        -0.4617
     10 C9          0.0880   -6.3919    0.7468 C.2       1 <0>        -0.0135
     11 C10         0.0937   -6.8180   -0.5551 C.2       1 <0>        -0.1993
     12 S1          0.0666   -5.3696   -1.4119 S.3       1 <0>         0.1738
     13 C11         0.1013   -7.3663    1.8515 C.2       1 <0>         0.5892
     14 O1          0.1176   -8.5584    1.6108 O.2       1 <0>        -0.5352
     15 N2          0.0956   -6.9367    3.1290 N.am      1 <0>        -0.7183
     16 C12         0.1088   -7.9057    4.2277 C.3       1 <0>         0.0859
     17 H1          1.0042    1.8801    0.0026 H         1 <0>         0.0758
     18 H2         -0.5455    1.8639   -0.8728 H         1 <0>         0.0704
     19 H3         -0.5286    1.8543    0.9071 H         1 <0>         0.0703
     20 H4         -0.0064   -0.1378   -2.1319 H         1 <0>         0.1322
     21 H5          0.0265   -2.5972   -2.1562 H         1 <0>         0.1280
     22 H6          0.0485   -2.6205    2.1315 H         1 <0>         0.1350
     23 H7          0.0241   -0.1608    2.1342 H         1 <0>         0.1314
     24 H8          0.1071   -7.8287   -0.9356 H         1 <0>         0.2104
     25 H9          0.0826   -5.9860    3.3210 H         1 <0>         0.4111
     26 H10        -0.7725   -8.5435    4.1603 H         1 <0>         0.0622
     27 H11         1.0073   -8.5192    4.1602 H         1 <0>         0.0622
     28 H12         0.1017   -7.3754    5.1800 H         1 <0>         0.0786
@<TRIPOS>BOND
     1    1    2 1
     2    1   17 1
     3    1   18 1
     4    1   19 1
     5    2    7 ar
     6    2    3 ar
     7    3    4 ar
     8    3   20 1
     9    4    5 ar
    10    4   21 1
    11    5    6 ar
    12    5    8 1
    13    6    7 ar
    14    6   22 1
    15    7   23 1
    16    8   12 1
    17    8    9 2
    18    9   10 1
    19   10   11 2
    20   10   13 1
    21   11   12 1
    22   11   24 1
    23   13   14 2
    24   13   15 am
    25   15   16 1
    26   15   25 1
    27   16   26 1
    28   16   27 1
    29   16   28 1
@<TRIPOS>MOLECULE
ZINC41010175
   43    45     0     0     0
SMALL
USER_CHARGES

@<TRIPOS>ATOM
      1 C1         -0.0187    1.5258    0.0104 C.3       1 <0>        -0.1412
      2 C2          0.0021   -0.0041    0.0020 C.3       1 <0>        -0.0372
      3 C3          0.7421   -0.5109    1.2415 C.3       1 <0>        -0.1418
      4 C4         -1.4333   -0.5336    0.0129 C.3       1 <0>        -0.1499
      5 C5          0.7074   -0.4901   -1.2379 C.ar      1 <0>        -0.0289
      6 C6          0.0327   -1.2848   -2.1474 C.ar      1 <0>        -0.1187
      7 C7          0.6726   -1.7327   -3.2847 C.ar      1 <0>        -0.0786
      8 C8          2.0033   -1.3824   -3.5166 C.ar      1 <0>        -0.0510
      9 C9          2.6782   -0.5805   -2.5953 C.ar      1 <0>        -0.0584
     10 C10         2.0252   -0.1349   -1.4645 C.ar      1 <0>        -0.1182
     11 C11         2.6954   -1.8592   -4.7332 C.2       1 <0>         0.1908
     12 N1          3.9420   -1.6458   -5.1302 N.2       1 <0>        -0.5119
     13 C12         4.3959   -2.1524   -6.2524 C.2       1 <0>        -0.0083
     14 C13         3.5809   -2.9125   -7.0312 C.2       1 <0>        -0.1854
     15 S1          2.0786   -2.8855   -6.0611 S.3       1 <0>         0.0886
     16 C14         5.8180   -1.8916   -6.6775 C.3       1 <0>         0.0832
     17 N2          5.8884   -0.6098   -7.3917 N.4       1 <0>        -0.4782
     18 C15         7.2747   -0.3557   -7.8060 C.3       1 <0>        -0.0840
     19 C16         7.9798    0.8618   -7.2049 C.3       1 <0>        -0.1535
     20 C17         7.5387    0.8792   -8.6699 C.3       1 <0>        -0.1541
     21 H1          1.0039    1.9031    0.0027 H         1 <0>         0.0584
     22 H2         -0.5459    1.8868   -0.8726 H         1 <0>         0.0582
     23 H3         -0.5289    1.8773    0.9072 H         1 <0>         0.0657
     24 H4          0.2319   -0.1594    2.1383 H         1 <0>         0.0657
     25 H5          0.7568   -1.6008    1.2356 H         1 <0>         0.0588
     26 H6          1.7647   -0.1336    1.2338 H         1 <0>         0.0586
     27 H7         -1.9605   -0.1726   -0.8702 H         1 <0>         0.0610
     28 H8         -1.4185   -1.6235    0.0069 H         1 <0>         0.0612
     29 H9         -1.9435   -0.1821    0.9097 H         1 <0>         0.0654
     30 H10        -0.9971   -1.5555   -1.9665 H         1 <0>         0.1418
     31 H11         0.1448   -2.3533   -3.9937 H         1 <0>         0.1281
     32 H12         3.7083   -0.3062   -2.7689 H         1 <0>         0.1337
     33 H13         2.5451    0.4895   -0.7529 H         1 <0>         0.1347
     34 H14         3.7852   -3.4006   -7.9726 H         1 <0>         0.2097
     35 H15         6.4591   -1.8526   -5.7969 H         1 <0>         0.1449
     36 H16         6.1532   -2.6932   -7.3357 H         1 <0>         0.1455
     37 H17         5.2950   -0.6460   -8.2069 H         1 <0>         0.4266
     38 H18         7.8780   -1.2429   -7.9985 H         1 <0>         0.1793
     39 H19         7.4150    1.4743   -6.5020 H         1 <0>         0.1210
     40 H20         9.0472    0.7758   -7.0017 H         1 <0>         0.1344
     41 H21         8.3159    0.8046   -9.4304 H         1 <0>         0.1349
     42 H22         6.6838    1.5031   -8.9307 H         1 <0>         0.1203
     43 H23         5.5781    0.1321   -6.7823 H         1 <0>         0.4285
@<TRIPOS>BOND
     1    1    2 1
     2    1   21 1
     3    1   22 1
     4    1   23 1
     5    2    3 1
     6    2    4 1
     7    2    5 1
     8    3   24 1
     9    3   25 1
    10    3   26 1
    11    4   27 1
    12    4   28 1
    13    4   29 1
    14    5   10 ar
    15    5    6 ar
    16    6    7 ar
    17    6   30 1
    18    7    8 ar
    19    7   31 1
    20    8    9 ar
    21    8   11 1
    22    9   10 ar
    23    9   32 1
    24   10   33 1
    25   11   15 1
    26   11   12 2
    27   12   13 1
    28   13   14 2
    29   13   16 1
    30   14   15 1
    31   14   34 1
    32   16   17 1
    33   16   35 1
    34   16   36 1
    35   17   18 1
    36   17   37 1
    37   17   43 1
    38   18   20 1
    39   18   19 1
    40   18   38 1
    41   19   20 1
    42   19   39 1
    43   19   40 1
    44   20   41 1
    45   20   42 1
@<TRIPOS>MOLECULE
ZINC41010157
   37    40     0     0     0
SMALL
USER_CHARGES

@<TRIPOS>ATOM
      1 C1         -0.0164    1.3571    0.0095 C.ar      1 <0>        -0.0955
      2 C2          1.1682    2.0913    0.0021 C.ar      1 <0>        -0.1085
      3 C3          2.3779    1.4681   -0.0132 C.ar      1 <0>        -0.1004
      4 C4          2.4369    0.0628   -0.0213 C.ar      1 <0>        -0.0577
      5 C5          3.6673   -0.6114   -0.0365 C.ar      1 <0>        -0.0530
      6 C6          3.6849   -1.9957   -0.0437 C.ar      1 <0>        -0.0382
      7 C7          2.4826   -2.7251   -0.0359 C.ar      1 <0>        -0.0805
      8 C8          1.2832   -2.0898   -0.0211 C.ar      1 <0>        -0.0968
      9 C9          1.2315   -0.6839   -0.0134 C.ar      1 <0>        -0.0307
     10 C10         0.0021   -0.0041    0.0020 C.ar      1 <0>        -0.1121
     11 C11         4.9775   -2.7125   -0.0602 C.2       1 <0>         0.1870
     12 N1          5.2163   -4.0166   -0.0747 N.2       1 <0>        -0.5086
     13 C12         6.4420   -4.4845   -0.0890 C.2       1 <0>        -0.0084
     14 C13         7.4956   -3.6249   -0.0892 C.2       1 <0>        -0.1837
     15 S1          6.6399   -2.0544   -0.0741 S.3       1 <0>         0.0895
     16 C14         6.6818   -5.9723   -0.1048 C.3       1 <0>         0.0832
     17 N2          6.6513   -6.4877    1.2705 N.4       1 <0>        -0.4782
     18 C15         6.8850   -7.9379    1.2552 C.3       1 <0>        -0.0840
     19 C16         5.7536   -8.8411    1.7502 C.3       1 <0>        -0.1535
     20 C17         7.0079   -8.6480    2.6048 C.3       1 <0>        -0.1541
     21 H1         -0.9634    1.8760    0.0259 H         1 <0>         0.1317
     22 H2          1.1255    3.1704    0.0083 H         1 <0>         0.1318
     23 H3          3.2880    2.0495   -0.0195 H         1 <0>         0.1332
     24 H4          4.5929   -0.0550   -0.0429 H         1 <0>         0.1334
     25 H5          2.5141   -3.8046   -0.0420 H         1 <0>         0.1339
     26 H6          0.3683   -2.6638   -0.0152 H         1 <0>         0.1390
     27 H7         -0.9244   -0.5590    0.0079 H         1 <0>         0.1347
     28 H8          8.5553   -3.8328   -0.0997 H         1 <0>         0.2103
     29 H9          5.9040   -6.4595   -0.6928 H         1 <0>         0.1453
     30 H10         7.6558   -6.1786   -0.5485 H         1 <0>         0.1457
     31 H11         7.3713   -6.0367    1.8148 H         1 <0>         0.4266
     32 H12         7.5010   -8.3062    0.4348 H         1 <0>         0.1793
     33 H13         4.8358   -8.3593    2.0873 H         1 <0>         0.1212
     34 H14         5.6250   -9.8038    1.2555 H         1 <0>         0.1344
     35 H15         7.7045   -9.4836    2.6723 H         1 <0>         0.1348
     36 H16         6.9153   -8.0391    3.5041 H         1 <0>         0.1203
     37 H17         5.7497   -6.2967    1.6813 H         1 <0>         0.4287
@<TRIPOS>BOND
     1    1   10 ar
     2    1    2 ar
     3    1   21 1
     4    2    3 ar
     5    2   22 1
     6    3    4 ar
     7    3   23 1
     8    4    9 ar
     9    4    5 ar
    10    5    6 ar
    11    5   24 1
    12    6    7 ar
    13    6   11 1
    14    7    8 ar
    15    7   25 1
    16    8    9 ar
    17    8   26 1
    18    9   10 ar
    19   10   27 1
    20   11   15 1
    21   11   12 2
    22   12   13 1
    23   13   14 2
    24   13   16 1
    25   14   15 1
    26   14   28 1
    27   16   17 1
    28   16   29 1
    29   16   30 1
    30   17   18 1
    31   17   31 1
    32   17   37 1
    33   18   20 1
    34   18   19 1
    35   18   32 1
    36   19   20 1
    37   19   33 1
    38   19   34 1
    39   20   35 1
    40   20   36 1
@<TRIPOS>MOLECULE
ZINC83942495
   22    23     0     0     0
SMALL
USER_CHARGES

@<TRIPOS>ATOM
      1 C1         -0.0167    1.3792    0.0096 C.ar      1 <0>        -0.1135
      2 C2          1.1661    2.0896    0.0021 C.ar      1 <0>        -0.0611
      3 C3          2.3851    1.4109   -0.0132 C.ar      1 <0>        -0.0374
      4 C4          2.3996    0.0135   -0.0208 C.ar      1 <0>         0.1544
      5 C5          1.2064   -0.6861   -0.0132 C.ar      1 <0>        -0.0791
      6 C6          0.0021   -0.0041    0.0020 C.ar      1 <0>        -0.0635
      7 Cl1         1.2194   -2.4221   -0.0227 Cl        1 <0>        -0.0370
      8 F1          3.5752   -0.6520   -0.0361 F         1 <0>        -0.1017
      9 C7          3.6557    2.1666   -0.0217 C.2       1 <0>         0.1407
     10 N1          4.9024    1.7162   -0.0416 N.2       1 <0>        -0.4771
     11 C8          5.9243    2.5399   -0.0468 C.2       1 <0>         0.0435
     12 C9          5.7124    3.8825   -0.0317 C.2       1 <0>        -0.1565
     13 S1          3.9247    3.9342   -0.0160 S.3       1 <0>         0.0270
     14 C10         7.3304    1.9980   -0.0691 C.3       1 <0>         0.1498
     15 O1          8.2594    3.0839   -0.0702 O.3       1 <0>        -0.5720
     16 H1         -0.9601    1.9047    0.0260 H         1 <0>         0.1508
     17 H2          1.1485    3.1694    0.0078 H         1 <0>         0.1443
     18 H3         -0.9272   -0.5543    0.0083 H         1 <0>         0.1512
     19 H4          6.4257    4.6933   -0.0332 H         1 <0>         0.2078
     20 H5          7.4954    1.3796    0.8132 H         1 <0>         0.0686
     21 H6          7.4737    1.3963   -0.9665 H         1 <0>         0.0687
     22 H7          9.1862    2.8085   -0.0841 H         1 <0>         0.3921
@<TRIPOS>BOND
     1    1    6 ar
     2    1    2 ar
     3    1   16 1
     4    2    3 ar
     5    2   17 1
     6    3    4 ar
     7    3    9 1
     8    4    5 ar
     9    4    8 1
    10    5    6 ar
    11    5    7 1
    12    6   18 1
    13    9   13 1
    14    9   10 2
    15   10   11 1
    16   11   12 2
    17   11   14 1
    18   12   13 1
    19   12   19 1
    20   14   15 1
    21   14   20 1
    22   14   21 1
    23   15   22 1
@<TRIPOS>MOLECULE
ZINC35163439
   33    35     0     0     0
SMALL
USER_CHARGES

@<TRIPOS>ATOM
      1 C1         -0.0167    1.3782    0.0096 C.ar      1 <0>        -0.0579
      2 C2          1.1690    2.0869    0.0021 C.ar      1 <0>        -0.1909
      3 C3          2.3816    1.4097   -0.0131 C.ar      1 <0>         0.2305
      4 C4          2.3981    0.0207   -0.0206 C.ar      1 <0>        -0.1927
      5 C5          1.2085   -0.6827   -0.0131 C.ar      1 <0>         0.0152
      6 C6          0.0021   -0.0041    0.0020 C.ar      1 <0>        -0.1704
      7 Cl1         1.2272   -2.4186   -0.0231 Cl        1 <0>        -0.0711
      8 N1          3.5819    2.1238   -0.0212 N.pl3     1 <0>        -0.7378
      9 C7          4.8600    1.4080   -0.0372 C.3       1 <0>         0.1967
     10 C8          5.9925    2.4022   -0.0432 C.2       1 <0>         0.0389
     11 C9          6.5865    2.7645    1.1245 C.2       1 <0>        -0.1774
     12 S1          7.8129    3.9206    0.5262 S.3       1 <0>         0.0298
     13 C10         7.4016    3.7954   -1.2094 C.2       1 <0>         0.1577
     14 N2          6.4105    2.9156   -1.1766 N.2       1 <0>        -0.4852
     15 C11         8.0074    4.4837   -2.3693 C.ar      1 <0>        -0.0318
     16 C12         7.5246    4.2435   -3.6565 C.ar      1 <0>        -0.0388
     17 C13         8.0932    4.8881   -4.7350 C.ar      1 <0>        -0.1536
     18 C14         9.1425    5.7727   -4.5423 C.ar      1 <0>         0.1225
     19 C15         9.6257    6.0148   -3.2662 C.ar      1 <0>        -0.1511
     20 C16         9.0602    5.3802   -2.1801 C.ar      1 <0>        -0.0610
     21 F1          9.6966    6.4009   -5.6023 F         1 <0>        -0.1315
     22 H1         -0.9595    1.9047    0.0259 H         1 <0>         0.1317
     23 H2          1.1531    3.1668    0.0077 H         1 <0>         0.1252
     24 H3          3.3393   -0.5088   -0.0328 H         1 <0>         0.1309
     25 H4         -0.9264   -0.5556    0.0082 H         1 <0>         0.1299
     26 H5          3.5693    3.0937   -0.0162 H         1 <0>         0.4030
     27 H6          4.9346    0.7777    0.8490 H         1 <0>         0.0790
     28 H7          4.9173    0.7866   -0.9308 H         1 <0>         0.0789
     29 H8          6.3760    2.4435    2.1340 H         1 <0>         0.2035
     30 H9          6.7074    3.5538   -3.8079 H         1 <0>         0.1469
     31 H10         7.7204    4.7029   -5.7316 H         1 <0>         0.1462
     32 H11        10.4436    6.7050   -3.1214 H         1 <0>         0.1465
     33 H12         9.4342    5.5732   -1.1855 H         1 <0>         0.1380
@<TRIPOS>BOND
     1    1    6 ar
     2    1    2 ar
     3    1   22 1
     4    2    3 ar
     5    2   23 1
     6    3    4 ar
     7    3    8 1
     8    4    5 ar
     9    4   24 1
    10    5    6 ar
    11    5    7 1
    12    6   25 1
    13    8    9 1
    14    8   26 1
    15    9   10 1
    16    9   27 1
    17    9   28 1
    18   10   14 1
    19   10   11 2
    20   11   12 1
    21   11   29 1
    22   12   13 1
    23   13   14 2
    24   13   15 1
    25   15   20 ar
    26   15   16 ar
    27   16   17 ar
    28   16   30 1
    29   17   18 ar
    30   17   31 1
    31   18   19 ar
    32   18   21 1
    33   19   20 ar
    34   19   32 1
    35   20   33 1
@<TRIPOS>MOLECULE
ZINC49753688
   38    39     0     0     0
SMALL
USER_CHARGES

@<TRIPOS>ATOM
      1 C1          0.1365    1.0422   -0.7204 C.ar      1 <0>        -0.1121
      2 C2          1.2735    1.8233   -0.6109 C.ar      1 <0>        -0.0750
      3 C3          2.4856    1.2482   -0.2753 C.ar      1 <0>        -0.1024
      4 C4          2.5684   -0.1117   -0.0478 C.ar      1 <0>        -0.0189
      5 C5          1.4244   -0.9050   -0.1568 C.ar      1 <0>        -0.0238
      6 C6          0.2049   -0.3171   -0.4954 C.ar      1 <0>        -0.0566
      7 C7          1.5050   -2.3614    0.0848 C.2       1 <0>         0.1577
      8 N1          0.5490   -3.2779    0.0272 N.2       1 <0>        -0.4999
      9 C8          0.8012   -4.5420    0.2742 C.2       1 <0>        -0.0074
     10 C9          2.0635   -4.9306    0.5962 C.2       1 <0>        -0.2010
     11 S1          2.9197   -3.3620    0.5256 S.3       1 <0>         0.1402
     12 C10        -0.3067   -5.5609    0.2013 C.3       1 <0>         0.0703
     13 N2         -1.0223   -5.5988    1.4837 N.4       1 <0>        -0.3792
     14 C11        -1.6926   -4.3112    1.7086 C.3       1 <0>        -0.0081
     15 C12        -2.3124   -4.2963    3.1074 C.3       1 <0>         0.0473
     16 O1         -1.2772   -4.3894    4.0881 O.3       1 <0>        -0.5772
     17 C13        -2.0233   -6.6735    1.4544 C.3       1 <0>        -0.0115
     18 C14        -1.3158   -8.0273    1.3688 C.3       1 <0>         0.0457
     19 O2         -0.5389   -8.2343    2.5502 O.3       1 <0>        -0.5769
     20 Cl1         4.0907   -0.8327    0.3722 Cl        1 <0>        -0.0289
     21 H1         -0.8077    1.4985   -0.9784 H         1 <0>         0.1437
     22 H2          1.2141    2.8870   -0.7885 H         1 <0>         0.1461
     23 H3          3.3693    1.8634   -0.1915 H         1 <0>         0.1488
     24 H4         -0.6836   -0.9251   -0.5810 H         1 <0>         0.1437
     25 H5          2.4445   -5.9145    0.8268 H         1 <0>         0.2049
     26 H6         -1.0003   -5.2873   -0.5938 H         1 <0>         0.1418
     27 H7          0.1164   -6.5434   -0.0078 H         1 <0>         0.1413
     28 H8         -0.9655   -3.5035    1.6248 H         1 <0>         0.1432
     29 H9         -2.4756   -4.1740    0.9628 H         1 <0>         0.1416
     30 H10        -2.8655   -3.3680    3.2499 H         1 <0>         0.0930
     31 H11        -2.9905   -5.1432    3.2134 H         1 <0>         0.0697
     32 H12        -1.5981   -4.3855    5.0003 H         1 <0>         0.4067
     33 H13        -2.6248   -6.6346    2.3625 H         1 <0>         0.1384
     34 H14        -2.6687   -6.5452    0.5853 H         1 <0>         0.1439
     35 H15        -2.0582   -8.8203    1.2787 H         1 <0>         0.0960
     36 H16        -0.6618   -8.0411    0.4969 H         1 <0>         0.0712
     37 H17        -0.0022   -9.0385    2.5322 H         1 <0>         0.4073
     38 H18        -0.3657   -5.7711    2.2302 H         1 <0>         0.4363
@<TRIPOS>BOND
     1    1    6 ar
     2    1    2 ar
     3    1   21 1
     4    2    3 ar
     5    2   22 1
     6    3    4 ar
     7    3   23 1
     8    4    5 ar
     9    4   20 1
    10    5    6 ar
    11    5    7 1
    12    6   24 1
    13    7   11 1
    14    7    8 2
    15    8    9 1
    16    9   10 2
    17    9   12 1
    18   10   11 1
    19   10   25 1
    20   12   13 1
    21   12   26 1
    22   12   27 1
    23   13   14 1
    24   13   17 1
    25   13   38 1
    26   14   15 1
    27   14   28 1
    28   14   29 1
    29   15   16 1
    30   15   30 1
    31   15   31 1
    32   16   32 1
    33   17   18 1
    34   17   33 1
    35   17   34 1
    36   18   19 1
    37   18   35 1
    38   18   36 1
    39   19   37 1
@<TRIPOS>MOLECULE
ZINC70841150
   30    31     0     0     0
SMALL
USER_CHARGES

@<TRIPOS>ATOM
      1 C1         -0.0187    1.5258    0.0104 C.3       1 <0>        -0.1795
      2 C2          0.0021   -0.0041    0.0020 C.3       1 <0>         0.1153
      3 H1          0.5293   -0.3651    0.8851 H         1 <0>         0.1495
      4 C3          0.7074   -0.4901   -1.2379 C.2       1 <0>        -0.0034
      5 C4          2.0618   -0.6068   -1.2491 C.2       1 <0>        -0.2005
      6 S1          2.3278   -1.2034   -2.9140 S.3       1 <0>         0.1459
      7 C5          0.6107   -1.2321   -3.4119 C.2       1 <0>         0.1611
      8 N1          0.0148   -0.8065   -2.3068 N.2       1 <0>        -0.5276
      9 C6          0.0153   -1.6290   -4.7057 C.ar      1 <0>        -0.0249
     10 C7         -1.3670   -1.5702   -4.8886 C.ar      1 <0>        -0.0580
     11 C8         -1.9163   -1.9419   -6.0981 C.ar      1 <0>        -0.1121
     12 C9         -1.1004   -2.3725   -7.1295 C.ar      1 <0>        -0.0741
     13 C10         0.2704   -2.4335   -6.9560 C.ar      1 <0>        -0.1014
     14 C11         0.8341   -2.0588   -5.7520 C.ar      1 <0>        -0.0186
     15 Cl1         2.5554   -2.1289   -5.5378 Cl        1 <0>        -0.0273
     16 N2         -1.3761   -0.5125    0.0124 N.4       1 <0>        -0.5006
     17 C12        -2.0260   -0.1396    1.2760 C.3       1 <0>        -0.0521
     18 H2          1.0039    1.9031    0.0027 H         1 <0>         0.1059
     19 H3         -0.5459    1.8868   -0.8726 H         1 <0>         0.0835
     20 H4         -0.5289    1.8773    0.9072 H         1 <0>         0.0890
     21 H5          2.7786   -0.3970   -0.4690 H         1 <0>         0.2058
     22 H6         -2.0054   -1.2348   -4.0846 H         1 <0>         0.1412
     23 H7         -2.9859   -1.8971   -6.2403 H         1 <0>         0.1438
     24 H8         -1.5360   -2.6626   -8.0742 H         1 <0>         0.1467
     25 H9          0.9016   -2.7704   -7.7650 H         1 <0>         0.1495
     26 H10        -1.8879   -0.1129   -0.7598 H         1 <0>         0.4340
     27 H11        -1.4732   -0.5714    2.1102 H         1 <0>         0.1240
     28 H12        -2.0386    0.9461    1.3715 H         1 <0>         0.1254
     29 H13        -3.0486   -0.5169    1.2837 H         1 <0>         0.1281
     30 H14        -1.3644   -1.5176   -0.0760 H         1 <0>         0.4313
@<TRIPOS>BOND
     1    1    2 1
     2    1   18 1
     3    1   19 1
     4    1   20 1
     5    2    3 1
     6    2    4 1
     7    2   16 1
     8    4    8 1
     9    4    5 2
    10    5    6 1
    11    5   21 1
    12    6    7 1
    13    7    8 2
    14    7    9 1
    15    9   14 ar
    16    9   10 ar
    17   10   11 ar
    18   10   22 1
    19   11   12 ar
    20   11   23 1
    21   12   13 ar
    22   12   24 1
    23   13   14 ar
    24   13   25 1
    25   14   15 1
    26   16   17 1
    27   16   26 1
    28   16   30 1
    29   17   27 1
    30   17   28 1
    31   17   29 1
@<TRIPOS>MOLECULE
ZINC62786668
   30    31     0     0     0
SMALL
USER_CHARGES

@<TRIPOS>ATOM
      1 C1         -0.0187    1.5258    0.0104 C.3       1 <0>        -0.1901
      2 C2          0.0021   -0.0041    0.0020 C.3       1 <0>        -0.0095
      3 N1         -1.3761   -0.5125    0.0124 N.4       1 <0>        -0.5091
      4 C3         -1.3562   -1.9814    0.0044 C.3       1 <0>         0.0785
      5 C4         -2.7700   -2.5030    0.0151 C.2       1 <0>        -0.0126
      6 C5         -3.3824   -2.8333   -1.1524 C.2       1 <0>        -0.1879
      7 S1         -4.9781   -3.3692   -0.5480 S.3       1 <0>         0.1334
      8 C6         -4.6561   -3.0956    1.1893 C.2       1 <0>         0.1638
      9 N2         -3.4100   -2.6442    1.1525 N.2       1 <0>        -0.4997
     10 C7         -5.5392   -3.3184    2.3536 C.ar      1 <0>        -0.0668
     11 C8         -5.0866   -3.0297    3.6418 C.ar      1 <0>        -0.0252
     12 C9         -5.9148   -3.2396    4.7244 C.ar      1 <0>        -0.1190
     13 C10        -7.1942   -3.7359    4.5366 C.ar      1 <0>         0.0183
     14 C11        -7.6508   -4.0248    3.2624 C.ar      1 <0>        -0.1417
     15 C12        -6.8329   -3.8136    2.1685 C.ar      1 <0>         0.1443
     16 F1         -7.2809   -4.0898    0.9243 F         1 <0>        -0.1165
     17 Cl1        -8.2294   -3.9974    5.9055 Cl        1 <0>        -0.0279
     18 H1          1.0039    1.9031    0.0027 H         1 <0>         0.1083
     19 H2         -0.5459    1.8868   -0.8726 H         1 <0>         0.0805
     20 H3         -0.5289    1.8773    0.9072 H         1 <0>         0.0807
     21 H4          0.5123   -0.3556   -0.8948 H         1 <0>         0.1326
     22 H5          0.5293   -0.3651    0.8851 H         1 <0>         0.1327
     23 H6         -1.8484   -0.1871    0.8426 H         1 <0>         0.4307
     24 H7         -0.8460   -2.3329   -0.8924 H         1 <0>         0.1461
     25 H8         -0.8290   -2.3425    0.8874 H         1 <0>         0.1453
     26 H9         -3.0090   -2.7853   -2.1647 H         1 <0>         0.2112
     27 H10        -4.0893   -2.6430    3.7908 H         1 <0>         0.1554
     28 H11        -5.5647   -3.0166    5.7215 H         1 <0>         0.1557
     29 H12        -8.6494   -4.4116    3.1223 H         1 <0>         0.1622
     30 H13        -1.8641   -0.1783   -0.8050 H         1 <0>         0.4262
@<TRIPOS>BOND
     1    1    2 1
     2    1   18 1
     3    1   19 1
     4    1   20 1
     5    2    3 1
     6    2   21 1
     7    2   22 1
     8    3    4 1
     9    3   23 1
    10    3   30 1
    11    4    5 1
    12    4   24 1
    13    4   25 1
    14    5    9 1
    15    5    6 2
    16    6    7 1
    17    6   26 1
    18    7    8 1
    19    8    9 2
    20    8   10 1
    21   10   15 ar
    22   10   11 ar
    23   11   12 ar
    24   11   27 1
    25   12   13 ar
    26   12   28 1
    27   13   14 ar
    28   13   17 1
    29   14   15 ar
    30   14   29 1
    31   15   16 1
@<TRIPOS>MOLECULE
ZINC76784467
   33    34     0     0     0
SMALL
USER_CHARGES

@<TRIPOS>ATOM
      1 C1         -0.0187    1.5258    0.0104 C.3       1 <0>        -0.1882
      2 C2          0.0021   -0.0041    0.0020 C.3       1 <0>        -0.0151
      3 N1          0.6897   -0.4778   -1.2066 N.4       1 <0>        -0.5008
      4 C3          0.7096   -1.9467   -1.2147 C.3       1 <0>         0.1166
      5 H1          1.1577   -2.3090   -0.2895 H         1 <0>         0.1507
      6 C4         -0.7215   -2.4755   -1.3296 C.3       1 <0>        -0.1799
      7 C5          1.5201   -2.4316   -2.3890 C.2       1 <0>         0.0025
      8 C6          2.1046   -3.6584   -2.3526 C.2       1 <0>        -0.1760
      9 S1          2.9009   -3.6921   -3.9537 S.3       1 <0>         0.1057
     10 C7          2.3697   -2.0729   -4.4951 C.2       1 <0>         0.1802
     11 N2          1.6584   -1.6725   -3.4505 N.2       1 <0>        -0.5323
     12 C8          2.6451   -1.3717   -5.7673 C.ar      1 <0>        -0.0362
     13 C9          2.1322   -0.0926   -5.9875 C.ar      1 <0>        -0.0538
     14 C10         2.3928    0.5569   -7.1761 C.ar      1 <0>        -0.1112
     15 C11         3.1614   -0.0581   -8.1502 C.ar      1 <0>        -0.0066
     16 C12         3.6726   -1.3273   -7.9376 C.ar      1 <0>        -0.1045
     17 C13         3.4238   -1.9840   -6.7504 C.ar      1 <0>        -0.0707
     18 Cl1         3.4847    0.7653   -9.6439 Cl        1 <0>        -0.0427
     19 H2          1.0039    1.9031    0.0027 H         1 <0>         0.0804
     20 H3         -0.5459    1.8868   -0.8726 H         1 <0>         0.0809
     21 H4         -0.5289    1.8773    0.9072 H         1 <0>         0.1076
     22 H5          0.5293   -0.3651    0.8851 H         1 <0>         0.1313
     23 H6         -1.0205   -0.3814    0.0098 H         1 <0>         0.1329
     24 H7          0.2017   -0.1436   -2.0240 H         1 <0>         0.4324
     25 H8         -0.7067   -3.5654   -1.3356 H         1 <0>         0.1066
     26 H9         -1.3078   -2.1247   -0.4802 H         1 <0>         0.0895
     27 H10        -1.1696   -2.1131   -2.2548 H         1 <0>         0.0841
     28 H11         2.0920   -4.4056   -1.5729 H         1 <0>         0.2107
     29 H12         1.5321    0.3877   -5.2288 H         1 <0>         0.1409
     30 H13         1.9964    1.5467   -7.3476 H         1 <0>         0.1471
     31 H14         4.2707   -1.8022   -8.7011 H         1 <0>         0.1496
     32 H15         3.8270   -2.9720   -6.5837 H         1 <0>         0.1391
     33 H16         1.6363   -0.1286   -1.2138 H         1 <0>         0.4292
@<TRIPOS>BOND
     1    1    2 1
     2    1   19 1
     3    1   20 1
     4    1   21 1
     5    2    3 1
     6    2   22 1
     7    2   23 1
     8    3    4 1
     9    3   24 1
    10    3   33 1
    11    4    5 1
    12    4    6 1
    13    4    7 1
    14    6   25 1
    15    6   26 1
    16    6   27 1
    17    7   11 1
    18    7    8 2
    19    8    9 1
    20    8   28 1
    21    9   10 1
    22   10   11 2
    23   10   12 1
    24   12   17 ar
    25   12   13 ar
    26   13   14 ar
    27   13   29 1
    28   14   15 ar
    29   14   30 1
    30   15   16 ar
    31   15   18 1
    32   16   17 ar
    33   16   31 1
    34   17   32 1
@<TRIPOS>MOLECULE
ZINC35163441
   33    35     0     0     0
SMALL
USER_CHARGES

@<TRIPOS>ATOM
      1 C1         -0.0169    1.3914    0.0097 C.ar      1 <0>        -0.0610
      2 C2          1.1695    2.0947    0.0021 C.ar      1 <0>        -0.1511
      3 C3          2.3789    1.4182   -0.0135 C.ar      1 <0>         0.1227
      4 C4          2.4033    0.0326   -0.0212 C.ar      1 <0>        -0.1536
      5 C5          1.2228   -0.6804   -0.0137 C.ar      1 <0>        -0.0387
      6 C6          0.0021   -0.0041    0.0020 C.ar      1 <0>        -0.0320
      7 C7         -1.2666   -0.7632    0.0105 C.2       1 <0>         0.1578
      8 N1         -1.4625   -2.0744    0.0109 N.2       1 <0>        -0.4856
      9 C8         -2.6728   -2.5824    0.0199 C.2       1 <0>         0.0386
     10 C9         -3.7535   -1.7580    0.0291 C.2       1 <0>        -0.1778
     11 S1         -2.9497   -0.1603    0.0311 S.3       1 <0>         0.0300
     12 C10        -2.8638   -4.0772    0.0196 C.3       1 <0>         0.1974
     13 N2         -2.8167   -4.5752   -1.3574 N.pl3     1 <0>        -0.7385
     14 C11        -2.9708   -5.9406   -1.6122 C.ar      1 <0>         0.2233
     15 C12        -3.1743   -6.8258   -0.5615 C.ar      1 <0>        -0.1875
     16 C13        -3.3267   -8.1746   -0.8163 C.ar      1 <0>        -0.0595
     17 C14        -3.2763   -8.6444   -2.1169 C.ar      1 <0>        -0.0932
     18 C15        -3.0736   -7.7647   -3.1657 C.ar      1 <0>        -0.0599
     19 C16        -2.9263   -6.4141   -2.9172 C.ar      1 <0>        -0.1833
     20 Cl1        -3.4671  -10.3406   -2.4335 Cl        1 <0>        -0.0795
     21 F1          3.5381    2.1119   -0.0217 F         1 <0>        -0.1314
     22 H1         -0.9588    1.9196    0.0260 H         1 <0>         0.1381
     23 H2          1.1559    3.1746    0.0081 H         1 <0>         0.1466
     24 H3          3.3485   -0.4898   -0.0334 H         1 <0>         0.1463
     25 H4          1.2429   -1.7602   -0.0204 H         1 <0>         0.1469
     26 H5         -4.8058   -2.0005    0.0368 H         1 <0>         0.2034
     27 H6         -2.0705   -4.5450    0.6025 H         1 <0>         0.0790
     28 H7         -3.8305   -4.3200    0.4609 H         1 <0>         0.0790
     29 H8         -2.6786   -3.9573   -2.0922 H         1 <0>         0.4020
     30 H9         -3.2131   -6.4598    0.4539 H         1 <0>         0.1294
     31 H10        -3.4851   -8.8634    0.0003 H         1 <0>         0.1320
     32 H11        -3.0347   -8.1340   -4.1798 H         1 <0>         0.1321
     33 H12        -2.7726   -5.7274   -3.7365 H         1 <0>         0.1281
@<TRIPOS>BOND
     1    1    6 ar
     2    1    2 ar
     3    1   22 1
     4    2    3 ar
     5    2   23 1
     6    3    4 ar
     7    3   21 1
     8    4    5 ar
     9    4   24 1
    10    5    6 ar
    11    5   25 1
    12    6    7 1
    13    7   11 1
    14    7    8 2
    15    8    9 1
    16    9   10 2
    17    9   12 1
    18   10   11 1
    19   10   26 1
    20   12   13 1
    21   12   27 1
    22   12   28 1
    23   13   14 1
    24   13   29 1
    25   14   19 ar
    26   14   15 ar
    27   15   16 ar
    28   15   30 1
    29   16   17 ar
    30   16   31 1
    31   17   18 ar
    32   17   20 1
    33   18   19 ar
    34   18   32 1
    35   19   33 1
@<TRIPOS>MOLECULE
ZINC49633851
   34    35     0     0     0
SMALL
USER_CHARGES

@<TRIPOS>ATOM
      1 C1         -0.0416    1.4829   -0.0298 C.3       1 <0>        -0.0418
      2 N1         -0.1068    0.0157   -0.0618 N.4       1 <0>        -0.3827
      3 C2          0.5820   -0.4790   -1.2614 C.3       1 <0>        -0.0050
      4 C3          0.3775   -1.9906   -1.3800 C.3       1 <0>         0.0437
      5 O1         -1.0082   -2.2687   -1.5910 O.3       1 <0>        -0.5800
      6 C4          0.5445   -0.5297    1.1367 C.3       1 <0>         0.0709
      7 C5         -0.2345   -0.1227    2.3609 C.2       1 <0>        -0.0085
      8 C6         -1.1647   -0.9632    2.8865 C.2       1 <0>        -0.2034
      9 S1         -1.7437    0.0098    4.2709 S.3       1 <0>         0.1376
     10 C7         -0.6864    1.4258    3.9991 C.2       1 <0>         0.1586
     11 N2         -0.0121    1.0414    2.9245 N.2       1 <0>        -0.4985
     12 C8         -0.5871    2.6842    4.7689 C.ar      1 <0>        -0.0252
     13 C9          0.3124    3.6766    4.3767 C.ar      1 <0>        -0.0559
     14 C10         0.4004    4.8484    5.0992 C.ar      1 <0>        -0.1120
     15 C11        -0.4007    5.0419    6.2109 C.ar      1 <0>        -0.0743
     16 C12        -1.2945    4.0632    6.6058 C.ar      1 <0>        -0.1025
     17 C13        -1.3969    2.8875    5.8882 C.ar      1 <0>        -0.0189
     18 Cl1        -2.5244    1.6627    6.3806 Cl        1 <0>        -0.0290
     19 H1          0.9937    1.7978    0.1012 H         1 <0>         0.1241
     20 H2         -0.4277    1.8843   -0.9667 H         1 <0>         0.1210
     21 H3         -0.6424    1.8552    0.8000 H         1 <0>         0.1213
     22 H4          0.1734    0.0133   -2.1439 H         1 <0>         0.1398
     23 H5          1.6473   -0.2614   -1.1844 H         1 <0>         0.1438
     24 H6          0.9566   -2.3706   -2.2216 H         1 <0>         0.0962
     25 H7          0.7097   -2.4753   -0.4620 H         1 <0>         0.0712
     26 H8         -1.2120   -3.2102   -1.6756 H         1 <0>         0.4089
     27 H9          0.5751   -1.6173    1.0705 H         1 <0>         0.1404
     28 H10         1.5605   -0.1413    1.2067 H         1 <0>         0.1420
     29 H11        -1.4699   -1.9460    2.5587 H         1 <0>         0.2050
     30 H12         0.9387    3.5272    3.5096 H         1 <0>         0.1442
     31 H13         1.0965    5.6167    4.7966 H         1 <0>         0.1441
     32 H14        -0.3272    5.9612    6.7729 H         1 <0>         0.1464
     33 H15        -1.9168    4.2204    7.4743 H         1 <0>         0.1489
     34 H16        -1.0720   -0.2777   -0.0831 H         1 <0>         0.4300
@<TRIPOS>BOND
     1    1    2 1
     2    1   19 1
     3    1   20 1
     4    1   21 1
     5    2    3 1
     6    2    6 1
     7    2   34 1
     8    3    4 1
     9    3   22 1
    10    3   23 1
    11    4    5 1
    12    4   24 1
    13    4   25 1
    14    5   26 1
    15    6    7 1
    16    6   27 1
    17    6   28 1
    18    7   11 1
    19    7    8 2
    20    8    9 1
    21    8   29 1
    22    9   10 1
    23   10   11 2
    24   10   12 1
    25   12   17 ar
    26   12   13 ar
    27   13   14 ar
    28   13   30 1
    29   14   15 ar
    30   14   31 1
    31   15   16 ar
    32   15   32 1
    33   16   17 ar
    34   16   33 1
    35   17   18 1
@<TRIPOS>MOLECULE
ZINC49754629
   37    38     0     0     0
SMALL
USER_CHARGES

@<TRIPOS>ATOM
      1 C1         -0.5982   -2.4390    0.8479 C.3       1 <0>        -0.1879
      2 C2          0.8274   -1.9402    1.0920 C.3       1 <0>        -0.0165
      3 N1          0.8326   -0.4717    1.1301 N.4       1 <0>        -0.3817
      4 C3          2.2162    0.0105    1.2364 C.3       1 <0>        -0.0071
      5 C4          2.9858   -0.3643   -0.0317 C.3       1 <0>         0.0464
      6 O1          2.4285    0.3296   -1.1497 O.3       1 <0>        -0.5794
      7 C5          0.0622   -0.0092    2.2922 C.3       1 <0>         0.0712
      8 C6         -0.0524    1.4929    2.2534 C.2       1 <0>        -0.0078
      9 C7         -1.1488    2.0781    1.7026 C.2       1 <0>        -0.2034
     10 S1         -0.7493    3.8066    1.9294 S.3       1 <0>         0.1395
     11 C8          0.8301    3.5616    2.7310 C.2       1 <0>         0.1582
     12 N2          0.9037    2.2382    2.7563 N.2       1 <0>        -0.4999
     13 C9          1.7922    4.5647    3.2349 C.ar      1 <0>        -0.0241
     14 C10         2.9856    4.1540    3.8304 C.ar      1 <0>        -0.0566
     15 C11         3.8792    5.0949    4.2986 C.ar      1 <0>        -0.1121
     16 C12         3.5950    6.4439    4.1790 C.ar      1 <0>        -0.0748
     17 C13         2.4145    6.8588    3.5900 C.ar      1 <0>        -0.1024
     18 C14         1.5135    5.9275    3.1118 C.ar      1 <0>        -0.0189
     19 Cl1         0.0353    6.4496    2.3662 Cl        1 <0>        -0.0289
     20 H1         -1.0018   -1.9627   -0.0456 H         1 <0>         0.0802
     21 H2         -0.5862   -3.5201    0.7094 H         1 <0>         0.1069
     22 H3         -1.2224   -2.1895    1.7060 H         1 <0>         0.0812
     23 H4          1.1907   -2.3296    2.0431 H         1 <0>         0.1312
     24 H5          1.4759   -2.2851    0.2867 H         1 <0>         0.1305
     25 H6          2.2153    1.0941    1.3540 H         1 <0>         0.1421
     26 H7          2.6954   -0.4484    2.1012 H         1 <0>         0.1417
     27 H8          4.0333   -0.0859    0.0834 H         1 <0>         0.0932
     28 H9          2.9116   -1.4391   -0.1974 H         1 <0>         0.0708
     29 H10         2.8682    0.1394   -1.9897 H         1 <0>         0.4069
     30 H11        -0.9342   -0.4504    2.2665 H         1 <0>         0.1445
     31 H12         0.5698   -0.3114    3.2082 H         1 <0>         0.1414
     32 H13        -2.0196    1.6249    1.2524 H         1 <0>         0.2052
     33 H14         3.2090    3.1016    3.9249 H         1 <0>         0.1437
     34 H15         4.8028    4.7778    4.7599 H         1 <0>         0.1438
     35 H16         4.2981    7.1761    4.5477 H         1 <0>         0.1462
     36 H17         2.1987    7.9132    3.4998 H         1 <0>         0.1489
     37 H18         0.4151   -0.1119    0.2849 H         1 <0>         0.4277
@<TRIPOS>BOND
     1    1    2 1
     2    1   20 1
     3    1   21 1
     4    1   22 1
     5    2    3 1
     6    2   23 1
     7    2   24 1
     8    3    4 1
     9    3    7 1
    10    3   37 1
    11    4    5 1
    12    4   25 1
    13    4   26 1
    14    5    6 1
    15    5   27 1
    16    5   28 1
    17    6   29 1
    18    7    8 1
    19    7   30 1
    20    7   31 1
    21    8   12 1
    22    8    9 2
    23    9   10 1
    24    9   32 1
    25   10   11 1
    26   11   12 2
    27   11   13 1
    28   13   18 ar
    29   13   14 ar
    30   14   15 ar
    31   14   33 1
    32   15   16 ar
    33   15   34 1
    34   16   17 ar
    35   16   35 1
    36   17   18 ar
    37   17   36 1
    38   18   19 1
@<TRIPOS>MOLECULE
ZINC70841145
   30    31     0     0     0
SMALL
USER_CHARGES

@<TRIPOS>ATOM
      1 C1         -0.0187    1.5258    0.0104 C.3       1 <0>        -0.1796
      2 C2          0.0021   -0.0041    0.0020 C.3       1 <0>         0.1153
      3 H1          0.5293   -0.3651    0.8851 H         1 <0>         0.1496
      4 C3         -1.4117   -0.5257    0.0127 C.2       1 <0>        -0.0034
      5 C4         -2.0766   -0.6666    1.1901 C.2       1 <0>        -0.2004
      6 S1         -3.6460   -1.2976    0.6094 S.3       1 <0>         0.1460
      7 C5         -3.2463   -1.3048   -1.1334 C.2       1 <0>         0.1609
      8 N1         -2.0051   -0.8395   -1.1150 N.2       1 <0>        -0.5275
      9 C6         -4.0780   -1.7142   -2.2852 C.ar      1 <0>        -0.0248
     10 C7         -3.5635   -1.6460   -3.5807 C.ar      1 <0>        -0.0581
     11 C8         -4.3446   -2.0294   -4.6511 C.ar      1 <0>        -0.1121
     12 C9         -5.6361   -2.4810   -4.4432 C.ar      1 <0>        -0.0741
     13 C10        -6.1531   -2.5514   -3.1624 C.ar      1 <0>        -0.1014
     14 C11        -5.3799   -2.1761   -2.0811 C.ar      1 <0>        -0.0186
     15 Cl1        -6.0274   -2.2718   -0.4732 Cl        1 <0>        -0.0273
     16 N2          0.6897   -0.4778   -1.2066 N.4       1 <0>        -0.5005
     17 C12         2.1002   -0.0703   -1.1590 C.3       1 <0>        -0.0522
     18 H2          1.0039    1.9031    0.0027 H         1 <0>         0.0890
     19 H3         -0.5459    1.8868   -0.8726 H         1 <0>         0.0835
     20 H4         -0.5289    1.8773    0.9072 H         1 <0>         0.1059
     21 H5         -1.7479   -0.4561    2.1971 H         1 <0>         0.2058
     22 H6         -2.5560   -1.2935   -3.7448 H         1 <0>         0.1411
     23 H7         -3.9474   -1.9766   -5.6540 H         1 <0>         0.1439
     24 H8         -6.2432   -2.7794   -5.2851 H         1 <0>         0.1467
     25 H9         -7.1617   -2.9047   -3.0070 H         1 <0>         0.1495
     26 H10         0.6317   -1.4840   -1.2540 H         1 <0>         0.4313
     27 H11         2.1628    1.0167   -1.1079 H         1 <0>         0.1253
     28 H12         2.5740   -0.5034   -0.2781 H         1 <0>         0.1241
     29 H13         2.6104   -0.4218   -2.0558 H         1 <0>         0.1281
     30 H14         0.2511   -0.0769   -2.0221 H         1 <0>         0.4341
@<TRIPOS>BOND
     1    1    2 1
     2    1   18 1
     3    1   19 1
     4    1   20 1
     5    2    3 1
     6    2    4 1
     7    2   16 1
     8    4    8 1
     9    4    5 2
    10    5    6 1
    11    5   21 1
    12    6    7 1
    13    7    8 2
    14    7    9 1
    15    9   14 ar
    16    9   10 ar
    17   10   11 ar
    18   10   22 1
    19   11   12 ar
    20   11   23 1
    21   12   13 ar
    22   12   24 1
    23   13   14 ar
    24   13   25 1
    25   14   15 1
    26   16   17 1
    27   16   26 1
    28   16   30 1
    29   17   27 1
    30   17   28 1
    31   17   29 1
@<TRIPOS>MOLECULE
ZINC76784469
   33    34     0     0     0
SMALL
USER_CHARGES

@<TRIPOS>ATOM
      1 C1         -0.0187    1.5258    0.0104 C.3       1 <0>        -0.1882
      2 C2          0.0021   -0.0041    0.0020 C.3       1 <0>        -0.0151
      3 N1          0.6897   -0.4778   -1.2066 N.4       1 <0>        -0.5008
      4 C3          0.7096   -1.9467   -1.2147 C.3       1 <0>         0.1166
      5 H1         -0.3082   -2.3244   -1.1174 H         1 <0>         0.1506
      6 C4          1.5550   -2.4517   -0.0438 C.3       1 <0>        -0.1798
      7 C5          1.3045   -2.4338   -2.5107 C.2       1 <0>         0.0025
      8 C6          0.9831   -3.6660   -2.9867 C.2       1 <0>        -0.1760
      9 S1          1.9467   -3.6995   -4.4931 S.3       1 <0>         0.1056
     10 C7          2.6703   -2.0731   -4.3248 C.2       1 <0>         0.1803
     11 N2          2.1294   -1.6671   -3.1846 N.2       1 <0>        -0.5324
     12 C8          3.6136   -1.3686   -5.2192 C.ar      1 <0>        -0.0363
     13 C9          4.0650   -0.0889   -4.8931 C.ar      1 <0>        -0.0538
     14 C10         4.9454    0.5633   -5.7311 C.ar      1 <0>        -0.1112
     15 C11         5.3808   -0.0491   -6.8943 C.ar      1 <0>        -0.0066
     16 C12         4.9359   -1.3184   -7.2234 C.ar      1 <0>        -0.1046
     17 C13         4.0603   -1.9829   -6.3899 C.ar      1 <0>        -0.0707
     18 Cl1         6.4883    0.7782   -7.9445 Cl        1 <0>        -0.0428
     19 H2          1.0039    1.9031    0.0027 H         1 <0>         0.0809
     20 H3         -0.5459    1.8868   -0.8726 H         1 <0>         0.0804
     21 H4         -0.5289    1.8773    0.9072 H         1 <0>         0.1076
     22 H5          0.5293   -0.3651    0.8851 H         1 <0>         0.1329
     23 H6         -1.0205   -0.3814    0.0098 H         1 <0>         0.1313
     24 H7          0.2017   -0.1436   -2.0240 H         1 <0>         0.4292
     25 H8          1.1248   -2.0993    0.8937 H         1 <0>         0.0895
     26 H9          1.5698   -3.5416   -0.0498 H         1 <0>         0.1066
     27 H10         2.5729   -2.0740   -0.1410 H         1 <0>         0.0841
     28 H11         0.3278   -4.4168   -2.5704 H         1 <0>         0.2107
     29 H12         3.7256    0.3899   -3.9865 H         1 <0>         0.1410
     30 H13         5.2954    1.5536   -5.4798 H         1 <0>         0.1472
     31 H14         5.2783   -1.7908   -8.1322 H         1 <0>         0.1497
     32 H15         3.7178   -2.9748   -6.6451 H         1 <0>         0.1391
     33 H16         1.6363   -0.1286   -1.2138 H         1 <0>         0.4324
@<TRIPOS>BOND
     1    1    2 1
     2    1   19 1
     3    1   20 1
     4    1   21 1
     5    2    3 1
     6    2   22 1
     7    2   23 1
     8    3    4 1
     9    3   24 1
    10    3   33 1
    11    4    5 1
    12    4    6 1
    13    4    7 1
    14    6   25 1
    15    6   26 1
    16    6   27 1
    17    7   11 1
    18    7    8 2
    19    8    9 1
    20    8   28 1
    21    9   10 1
    22   10   11 2
    23   10   12 1
    24   12   17 ar
    25   12   13 ar
    26   13   14 ar
    27   13   29 1
    28   14   15 ar
    29   14   30 1
    30   15   16 ar
    31   15   18 1
    32   16   17 ar
    33   16   31 1
    34   17   32 1
@<TRIPOS>MOLECULE
ZINC32015113
   22    23     0     0     0
SMALL
USER_CHARGES
[2-(4-chlorophenyl)thiazol-4-yl]methanol
@<TRIPOS>ATOM
      1 C1         -2.4414   -0.4876    0.0295 C.ar      1 <0>        -0.0587
      2 C2         -3.4914   -1.3822    0.0302 C.ar      1 <0>        -0.1096
      3 C3         -3.2437   -2.7446    0.0204 C.ar      1 <0>        -0.0188
      4 C4         -1.9422   -3.2172    0.0045 C.ar      1 <0>        -0.1071
      5 C5         -0.8843   -2.3321   -0.0017 C.ar      1 <0>        -0.0794
      6 C6         -1.1277   -0.9579    0.0081 C.ar      1 <0>        -0.0107
      7 C7          0.0021   -0.0041    0.0020 C.2       1 <0>         0.1504
      8 N1         -0.0159    1.3214    0.0093 N.2       1 <0>        -0.4898
      9 C8          1.0964    2.0180    0.0024 C.2       1 <0>         0.0440
     10 C9          2.2960    1.3786   -0.0125 C.2       1 <0>        -0.1599
     11 S1          1.7604   -0.3277   -0.0165 S.3       1 <0>         0.0145
     12 C10         1.0438    3.5240    0.0110 C.3       1 <0>         0.1589
     13 O1          2.3736    4.0471    0.0006 O.3       1 <0>        -0.6020
     14 Cl1        -4.5702   -3.8645    0.0287 Cl        1 <0>        -0.0590
     15 H1         -2.6357    0.5747    0.0413 H         1 <0>         0.1459
     16 H2         -4.5085   -1.0194    0.0426 H         1 <0>         0.1434
     17 H3         -1.7551   -4.2808   -0.0027 H         1 <0>         0.1438
     18 H4          0.1304   -2.7018   -0.0137 H         1 <0>         0.1376
     19 H5          3.2955    1.7878   -0.0195 H         1 <0>         0.2055
     20 H6          0.5039    3.8771   -0.8800 H         1 <0>         0.0638
     21 H7          0.5217    3.8675    0.9162 H         1 <0>         0.0638
     22 H8          2.5368    5.1349    0.0048 H         1 <0>         0.4233
@<TRIPOS>BOND
     1    1    6 ar
     2    1    2 ar
     3    1   15 1
     4    2    3 ar
     5    2   16 1
     6    3    4 ar
     7    3   14 1
     8    4    5 ar
     9    4   17 1
    10    5    6 ar
    11    5   18 1
    12    6    7 1
    13    7   11 1
    14    7    8 2
    15    8    9 1
    16    9   10 2
    17    9   12 1
    18   10   11 1
    19   10   19 1
    20   12   13 1
    21   12   20 1
    22   12   21 1
    23   13   22 1
@<TRIPOS>MOLECULE
ZINC86642347
   45    46     0     0     0
SMALL
USER_CHARGES

@<TRIPOS>ATOM
      1 C1         -0.0187    1.5258    0.0104 C.3       1 <0>        -0.1772
      2 C2          0.0021   -0.0041    0.0020 C.3       1 <0>        -0.1448
      3 C3         -1.4333   -0.5336    0.0129 C.3       1 <0>         0.0582
      4 C4         -1.4126   -2.0635    0.0045 C.3       1 <0>        -0.1440
      5 C5         -2.8437   -2.5923   -0.1104 C.3       1 <0>        -0.1792
      6 C6         -2.1494   -0.0402    1.2717 C.3       1 <0>        -0.1420
      7 C7         -1.4095   -0.5471    2.5112 C.3       1 <0>        -0.1573
      8 N1         -2.1438   -0.0470   -1.1772 N.4       1 <0>        -0.5037
      9 C8         -1.4562   -0.5208   -2.3858 C.3       1 <0>         0.0676
     10 C9         -2.1851   -0.0216   -3.6067 C.2       1 <0>        -0.0043
     11 C10        -1.7791    1.1202   -4.2225 C.2       1 <0>        -0.1830
     12 S1         -2.9660    1.2155   -5.5569 S.3       1 <0>         0.0963
     13 C11        -3.8710   -0.2719   -5.1500 C.2       1 <0>         0.1830
     14 N2         -3.2096   -0.6915   -4.0804 N.2       1 <0>        -0.5061
     15 C12        -5.0390   -0.8745   -5.8272 C.ar      1 <0>        -0.0537
     16 C13        -5.6035   -2.0520   -5.3346 C.ar      1 <0>        -0.0334
     17 C14        -6.6929   -2.6100   -5.9701 C.ar      1 <0>        -0.1554
     18 C15        -7.2267   -2.0039   -7.0963 C.ar      1 <0>         0.1387
     19 C16        -6.6700   -0.8345   -7.5895 C.ar      1 <0>        -0.1499
     20 C17        -5.5844   -0.2648   -6.9580 C.ar      1 <0>        -0.0535
     21 F1         -8.2934   -2.5550   -7.7156 F         1 <0>        -0.1242
     22 H1          1.0039    1.9031    0.0027 H         1 <0>         0.0856
     23 H2         -0.5459    1.8868   -0.8726 H         1 <0>         0.0491
     24 H3         -0.5289    1.8773    0.9072 H         1 <0>         0.0765
     25 H4          0.5123   -0.3556   -0.8948 H         1 <0>         0.0890
     26 H5          0.5293   -0.3651    0.8851 H         1 <0>         0.1154
     27 H6         -0.8263   -2.4142   -0.8449 H         1 <0>         0.0892
     28 H7         -0.9645   -2.4259    0.9297 H         1 <0>         0.1147
     29 H8         -3.4299   -2.2416    0.7389 H         1 <0>         0.0738
     30 H9         -3.2917   -2.2299   -1.0357 H         1 <0>         0.0543
     31 H10        -2.8289   -3.6822   -0.1164 H         1 <0>         0.0859
     32 H11        -2.1642    1.0497    1.2777 H         1 <0>         0.0891
     33 H12        -3.1720   -0.4175    1.2794 H         1 <0>         0.0885
     34 H13        -1.9196   -0.1955    3.4080 H         1 <0>         0.0768
     35 H14        -1.3947   -1.6369    2.5052 H         1 <0>         0.0701
     36 H15        -0.3869   -0.1698    2.5035 H         1 <0>         0.0698
     37 H16        -3.0904   -0.3963   -1.1701 H         1 <0>         0.4274
     38 H17        -0.4336   -0.1435   -2.3936 H         1 <0>         0.1471
     39 H18        -1.4414   -1.6107   -2.3918 H         1 <0>         0.1477
     40 H19        -0.9654    1.7857   -3.9745 H         1 <0>         0.2099
     41 H20        -5.1877   -2.5256   -4.4575 H         1 <0>         0.1452
     42 H21        -7.1305   -3.5212   -5.5898 H         1 <0>         0.1500
     43 H22        -7.0899   -0.3661   -8.4675 H         1 <0>         0.1518
     44 H23        -5.1543    0.6491   -7.3403 H         1 <0>         0.1393
     45 H24        -2.1575    0.9619   -1.1717 H         1 <0>         0.4219
@<TRIPOS>BOND
     1    1    2 1
     2    1   22 1
     3    1   23 1
     4    1   24 1
     5    2    3 1
     6    2   25 1
     7    2   26 1
     8    3    4 1
     9    3    6 1
    10    3    8 1
    11    4    5 1
    12    4   27 1
    13    4   28 1
    14    5   29 1
    15    5   30 1
    16    5   31 1
    17    6    7 1
    18    6   32 1
    19    6   33 1
    20    7   34 1
    21    7   35 1
    22    7   36 1
    23    8    9 1
    24    8   37 1
    25    8   45 1
    26    9   10 1
    27    9   38 1
    28    9   39 1
    29   10   14 1
    30   10   11 2
    31   11   12 1
    32   11   40 1
    33   12   13 1
    34   13   14 2
    35   13   15 1
    36   15   20 ar
    37   15   16 ar
    38   16   17 ar
    39   16   41 1
    40   17   18 ar
    41   17   42 1
    42   18   19 ar
    43   18   21 1
    44   19   20 ar
    45   19   43 1
    46   20   44 1
@<TRIPOS>MOLECULE
ZINC52329957
   27    28     0     0     0
SMALL
USER_CHARGES

@<TRIPOS>ATOM
      1 C1         -0.0184    1.5028    0.0103 C.3       1 <0>        -0.1095
      2 C2          0.0021   -0.0041    0.0020 C.2       1 <0>         0.1500
      3 C3          0.0053   -0.6786   -1.1785 C.2       1 <0>        -0.3267
      4 S1          0.0319   -2.3682   -0.5929 S.3       1 <0>         0.0626
      5 C4          0.0359   -1.9927    1.1552 C.2       1 <0>         0.2253
      6 N1          0.0223   -0.6673    1.1341 N.2       1 <0>        -0.5119
      7 C5          0.0544   -2.9127    2.3127 C.ar      1 <0>        -0.0404
      8 C6          0.0779   -4.2934    2.1100 C.ar      1 <0>        -0.0767
      9 C7          0.0951   -5.1470    3.1937 C.ar      1 <0>        -0.1027
     10 C8          0.0891   -4.6374    4.4799 C.ar      1 <0>        -0.0699
     11 C9          0.0658   -3.2690    4.6885 C.ar      1 <0>        -0.0404
     12 C10         0.0543   -2.4041    3.6118 C.ar      1 <0>        -0.0483
     13 Cl1         0.0579   -2.6390    6.3061 Cl        1 <0>        -0.0428
     14 C11        -0.0103   -0.1491   -2.5893 C.3       1 <0>         0.1110
     15 N2          1.3695    0.0429   -3.0555 N.4       1 <0>        -0.6384
     16 H1          1.0042    1.8801    0.0026 H         1 <0>         0.0877
     17 H2         -0.5455    1.8639   -0.8728 H         1 <0>         0.0807
     18 H3         -0.5286    1.8543    0.9071 H         1 <0>         0.0942
     19 H4          0.0823   -4.6929    1.1066 H         1 <0>         0.1351
     20 H5          0.1130   -6.2155    3.0376 H         1 <0>         0.1499
     21 H6          0.1023   -5.3100    5.3248 H         1 <0>         0.1486
     22 H7          0.0406   -1.3366    3.7751 H         1 <0>         0.1502
     23 H8         -0.5175   -0.8621   -3.2394 H         1 <0>         0.1466
     24 H9         -0.5381    0.8042   -2.6139 H         1 <0>         0.1533
     25 H10         1.8390    0.7029   -2.4538 H         1 <0>         0.4357
     26 H11         1.8581   -0.8396   -3.0328 H         1 <0>         0.4355
     27 H12         1.3591    0.3974   -4.0001 H         1 <0>         0.4415
@<TRIPOS>BOND
     1    1    2 1
     2    1   16 1
     3    1   17 1
     4    1   18 1
     5    2    6 1
     6    2    3 2
     7    3    4 1
     8    3   14 1
     9    4    5 1
    10    5    6 2
    11    5    7 1
    12    7   12 ar
    13    7    8 ar
    14    8    9 ar
    15    8   19 1
    16    9   10 ar
    17    9   20 1
    18   10   11 ar
    19   10   21 1
    20   11   12 ar
    21   11   13 1
    22   12   22 1
    23   14   15 1
    24   14   23 1
    25   14   24 1
    26   15   25 1
    27   15   26 1
    28   15   27 1
@<TRIPOS>MOLECULE
ZINC52329957
   26    27     0     0     0
SMALL
USER_CHARGES

@<TRIPOS>ATOM
      1 C1         -0.0184    1.5028    0.0103 C.3       1 <0>        -0.0860
      2 C2          0.0021   -0.0041    0.0020 C.2       1 <0>         0.0612
      3 C3          0.0053   -0.6786   -1.1785 C.2       1 <0>        -0.1690
      4 S1          0.0319   -2.3682   -0.5929 S.3       1 <0>         0.0427
      5 C4          0.0359   -1.9927    1.1552 C.2       1 <0>         0.1433
      6 N1          0.0223   -0.6673    1.1341 N.2       1 <0>        -0.4898
      7 C5          0.0544   -2.9127    2.3127 C.ar      1 <0>        -0.0016
      8 C6          0.0779   -4.2934    2.1100 C.ar      1 <0>        -0.0891
      9 C7          0.0951   -5.1470    3.1937 C.ar      1 <0>        -0.1023
     10 C8          0.0891   -4.6374    4.4799 C.ar      1 <0>        -0.0920
     11 C9          0.0658   -3.2690    4.6885 C.ar      1 <0>        -0.0363
     12 C10         0.0543   -2.4041    3.6118 C.ar      1 <0>        -0.0644
     13 Cl1         0.0579   -2.6390    6.3061 Cl        1 <0>        -0.0580
     14 C11        -0.0103   -0.1491   -2.5893 C.3       1 <0>         0.1507
     15 N2          1.3695    0.0429   -3.0555 N.3       1 <0>        -0.8453
     16 H1          1.0042    1.8801    0.0026 H         1 <0>         0.0752
     17 H2         -0.5455    1.8639   -0.8728 H         1 <0>         0.0722
     18 H3         -0.5286    1.8543    0.9071 H         1 <0>         0.0774
     19 H4          0.0823   -4.6929    1.1066 H         1 <0>         0.1342
     20 H5          0.1130   -6.2155    3.0376 H         1 <0>         0.1433
     21 H6          0.1023   -5.3100    5.3248 H         1 <0>         0.1409
     22 H7          0.0406   -1.3366    3.7751 H         1 <0>         0.1465
     23 H8         -0.5175   -0.8621   -3.2394 H         1 <0>         0.0903
     24 H9         -0.5381    0.8042   -2.6139 H         1 <0>         0.0589
     25 H10         1.3860    0.3976   -3.9999 H         1 <0>         0.3514
     26 H11         1.8805    0.6499   -2.4323 H         1 <0>         0.3457
@<TRIPOS>BOND
     1    1    2 1
     2    1   16 1
     3    1   17 1
     4    1   18 1
     5    2    6 1
     6    2    3 2
     7    3    4 1
     8    3   14 1
     9    4    5 1
    10    5    6 2
    11    5    7 1
    12    7   12 ar
    13    7    8 ar
    14    8    9 ar
    15    8   19 1
    16    9   10 ar
    17    9   20 1
    18   10   11 ar
    19   10   21 1
    20   11   12 ar
    21   11   13 1
    22   12   22 1
    23   14   15 1
    24   14   23 1
    25   14   24 1
    26   15   25 1
    27   15   26 1
@<TRIPOS>MOLECULE
ZINC35163466
   39    40     0     0     0
SMALL
USER_CHARGES

@<TRIPOS>ATOM
      1 C1          0.6164   -0.3028   -1.3903 C.3       1 <0>        -0.1573
      2 C2         -0.0321    0.0831   -0.0594 C.3       1 <0>        -0.1465
      3 C3         -1.4765   -0.4209   -0.0308 C.3       1 <0>         0.0242
      4 C4         -1.4831   -1.9508   -0.0426 C.3       1 <0>        -0.1496
      5 C5         -2.9248   -2.4538   -0.1397 C.3       1 <0>        -0.1743
      6 N1         -2.1396    0.0623    1.1877 N.4       1 <0>        -0.5070
      7 C6         -2.2577    1.5256    1.1336 C.3       1 <0>         0.0747
      8 C7         -3.0520    2.0097    2.3192 C.2       1 <0>        -0.0074
      9 C8         -2.4114    2.4326    3.4410 C.2       1 <0>        -0.1816
     10 S1         -3.8056    2.8719    4.4714 S.3       1 <0>         0.0968
     11 C9         -5.0861    2.4453    3.2987 C.2       1 <0>         0.1835
     12 N2         -4.3635    2.0287    2.2683 N.2       1 <0>        -0.5075
     13 C10        -6.5551    2.5377    3.4384 C.ar      1 <0>        -0.0544
     14 C11        -7.3847    2.1410    2.3885 C.ar      1 <0>        -0.0333
     15 C12        -8.7543    2.2292    2.5240 C.ar      1 <0>        -0.1554
     16 C13        -9.3071    2.7111    3.6999 C.ar      1 <0>         0.1390
     17 C14        -8.4879    3.1064    4.7455 C.ar      1 <0>        -0.1499
     18 C15        -7.1172    3.0165    4.6227 C.ar      1 <0>        -0.0534
     19 F1        -10.6494    2.7964    3.8273 F         1 <0>        -0.1241
     20 H1          1.6130    0.1346   -1.4492 H         1 <0>         0.0775
     21 H2          0.6915   -1.3882   -1.4567 H         1 <0>         0.0693
     22 H3          0.0067    0.0701   -2.2133 H         1 <0>         0.0673
     23 H4          0.5263   -0.3676    0.7611 H         1 <0>         0.0889
     24 H5         -0.0236    1.1678    0.0479 H         1 <0>         0.0865
     25 H6         -2.0087   -0.0485   -0.9061 H         1 <0>         0.1414
     26 H7         -0.9144   -2.3100   -0.9002 H         1 <0>         0.1156
     27 H8         -1.0295   -2.3232    0.8760 H         1 <0>         0.0880
     28 H9         -3.4936   -2.0946    0.7179 H         1 <0>         0.0499
     29 H10        -3.3784   -2.0814   -1.0582 H         1 <0>         0.0729
     30 H11        -2.9296   -3.5438   -0.1481 H         1 <0>         0.0841
     31 H12        -3.0594   -0.3470    1.2550 H         1 <0>         0.4291
     32 H13        -1.2633    1.9714    1.1560 H         1 <0>         0.1465
     33 H14        -2.7651    1.8153    0.2134 H         1 <0>         0.1451
     34 H15        -1.3536    2.4877    3.6517 H         1 <0>         0.2107
     35 H16        -6.9549    1.7659    1.4715 H         1 <0>         0.1452
     36 H17        -9.3972    1.9225    1.7122 H         1 <0>         0.1501
     37 H18        -8.9238    3.4813    5.6598 H         1 <0>         0.1519
     38 H19        -6.4797    3.3201    5.4400 H         1 <0>         0.1394
     39 H20        -1.5943   -0.2015    1.9946 H         1 <0>         0.4240
@<TRIPOS>BOND
     1    1    2 1
     2    1   20 1
     3    1   21 1
     4    1   22 1
     5    2    3 1
     6    2   23 1
     7    2   24 1
     8    3    4 1
     9    3    6 1
    10    3   25 1
    11    4    5 1
    12    4   26 1
    13    4   27 1
    14    5   28 1
    15    5   29 1
    16    5   30 1
    17    6    7 1
    18    6   31 1
    19    6   39 1
    20    7    8 1
    21    7   32 1
    22    7   33 1
    23    8   12 1
    24    8    9 2
    25    9   10 1
    26    9   34 1
    27   10   11 1
    28   11   12 2
    29   11   13 1
    30   13   18 ar
    31   13   14 ar
    32   14   15 ar
    33   14   35 1
    34   15   16 ar
    35   15   36 1
    36   16   17 ar
    37   16   19 1
    38   17   18 ar
    39   17   37 1
    40   18   38 1
@<TRIPOS>MOLECULE
ZINC70840402
   27    28     0     0     0
SMALL
USER_CHARGES

@<TRIPOS>ATOM
      1 C1         -0.0187    1.5258    0.0104 C.3       1 <0>        -0.1778
      2 C2          0.0021   -0.0041    0.0020 C.3       1 <0>         0.1181
      3 H1          0.5123   -0.3556   -0.8948 H         1 <0>         0.1537
      4 C3         -1.4117   -0.5257    0.0127 C.2       1 <0>        -0.0103
      5 C4         -1.8244   -1.3929   -0.9486 C.2       1 <0>        -0.1822
      6 S1         -3.5210   -1.6576   -0.4485 S.3       1 <0>         0.1363
      7 C5         -3.4957   -0.5867    0.9831 C.2       1 <0>         0.1606
      8 N1         -2.2451   -0.1471    0.9540 N.2       1 <0>        -0.4984
      9 C6         -4.5759   -0.2792    1.9436 C.ar      1 <0>        -0.1078
     10 C7         -4.3436    0.6016    3.0034 C.ar      1 <0>         0.1788
     11 C8         -5.3590    0.8842    3.8976 C.ar      1 <0>        -0.1625
     12 C9         -6.6022    0.2973    3.7458 C.ar      1 <0>        -0.0271
     13 C10        -6.8397   -0.5759    2.6998 C.ar      1 <0>        -0.1560
     14 C11        -5.8365   -0.8633    1.7934 C.ar      1 <0>         0.1574
     15 F1         -6.0723   -1.7114    0.7686 F         1 <0>        -0.1153
     16 F2         -3.1297    1.1751    3.1537 F         1 <0>        -0.1119
     17 N2          0.7126   -0.4907    1.1921 N.4       1 <0>        -0.6342
     18 H2          1.0039    1.9031    0.0027 H         1 <0>         0.0865
     19 H3         -0.5459    1.8868   -0.8726 H         1 <0>         0.1033
     20 H4         -0.5289    1.8773    0.9072 H         1 <0>         0.0909
     21 H5         -1.2790   -1.8072   -1.7838 H         1 <0>         0.2118
     22 H6         -5.1811    1.5647    4.7171 H         1 <0>         0.1573
     23 H7         -7.3915    0.5217    4.4480 H         1 <0>         0.1588
     24 H8         -7.8129   -1.0308    2.5882 H         1 <0>         0.1594
     25 H9          0.2403   -0.1653    2.0223 H         1 <0>         0.4387
     26 H10         0.7262   -1.4996    1.1866 H         1 <0>         0.4343
     27 H11         1.6592   -0.1415    1.1850 H         1 <0>         0.4374
@<TRIPOS>BOND
     1    1    2 1
     2    1   18 1
     3    1   19 1
     4    1   20 1
     5    2    3 1
     6    2    4 1
     7    2   17 1
     8    4    8 1
     9    4    5 2
    10    5    6 1
    11    5   21 1
    12    6    7 1
    13    7    8 2
    14    7    9 1
    15    9   14 ar
    16    9   10 ar
    17   10   11 ar
    18   10   16 1
    19   11   12 ar
    20   11   22 1
    21   12   13 ar
    22   12   23 1
    23   13   14 ar
    24   13   24 1
    25   14   15 1
    26   17   25 1
    27   17   26 1
    28   17   27 1
@<TRIPOS>MOLECULE
ZINC70840398
   27    28     0     0     0
SMALL
USER_CHARGES

@<TRIPOS>ATOM
      1 C1         -0.0187    1.5258    0.0104 C.3       1 <0>        -0.1750
      2 C2          0.0021   -0.0041    0.0020 C.3       1 <0>         0.1100
      3 H1          0.5123   -0.3556   -0.8948 H         1 <0>         0.1581
      4 C3          0.7309   -0.5033    1.2229 C.2       1 <0>         0.0380
      5 C4          0.1266   -1.3831    2.0640 C.2       1 <0>        -0.2674
      6 S1          1.4140   -1.6112    3.2842 S.3       1 <0>         0.1437
      7 C5          2.6140   -0.5125    2.5427 C.2       1 <0>         0.1747
      8 N1          1.9529   -0.0930    1.4727 N.2       1 <0>        -0.4854
      9 C6          3.9778   -0.1690    2.9970 C.ar      1 <0>        -0.1129
     10 C7          4.7572    0.7291    2.2629 C.ar      1 <0>         0.1841
     11 C8          6.0317    1.0453    2.6942 C.ar      1 <0>        -0.1633
     12 C9          6.5363    0.4749    3.8489 C.ar      1 <0>        -0.0247
     13 C10         5.7712   -0.4152    4.5806 C.ar      1 <0>        -0.1576
     14 C11         4.4924   -0.7363    4.1659 C.ar      1 <0>         0.1587
     15 F1          3.7441   -1.6010    4.8854 F         1 <0>        -0.1162
     16 F2          4.2663    1.2866    1.1344 F         1 <0>        -0.1068
     17 N2         -1.3761   -0.5125    0.0124 N.4       1 <0>        -0.6346
     18 H2          1.0039    1.9031    0.0027 H         1 <0>         0.1160
     19 H3         -0.5459    1.8868   -0.8726 H         1 <0>         0.0883
     20 H4         -0.5289    1.8773    0.9072 H         1 <0>         0.0802
     21 H5         -0.8586   -1.8223    2.0106 H         1 <0>         0.1993
     22 H6          6.6353    1.7392    2.1280 H         1 <0>         0.1584
     23 H7          7.5331    0.7256    4.1806 H         1 <0>         0.1593
     24 H8          6.1724   -0.8570    5.4807 H         1 <0>         0.1595
     25 H9         -1.8641   -0.1783   -0.8050 H         1 <0>         0.4440
     26 H10        -1.3624   -1.5214    0.0069 H         1 <0>         0.4366
     27 H11        -1.8484   -0.1871    0.8426 H         1 <0>         0.4349
@<TRIPOS>BOND
     1    1    2 1
     2    1   18 1
     3    1   19 1
     4    1   20 1
     5    2    3 1
     6    2    4 1
     7    2   17 1
     8    4    8 1
     9    4    5 2
    10    5    6 1
    11    5   21 1
    12    6    7 1
    13    7    8 2
    14    7    9 1
    15    9   14 ar
    16    9   10 ar
    17   10   11 ar
    18   10   16 1
    19   11   12 ar
    20   11   22 1
    21   12   13 ar
    22   12   23 1
    23   13   14 ar
    24   13   24 1
    25   14   15 1
    26   17   25 1
    27   17   26 1
    28   17   27 1
@<TRIPOS>MOLECULE
ZINC40999658
   33    34     0     0     0
SMALL
USER_CHARGES

@<TRIPOS>ATOM
      1 C1         -0.0187    1.5258    0.0104 C.3       1 <0>        -0.1564
      2 C2          0.0021   -0.0041    0.0020 C.3       1 <0>        -0.1515
      3 C3          0.7182   -0.4975   -1.2568 C.3       1 <0>        -0.0102
      4 N1          0.7381   -1.9663   -1.2649 N.4       1 <0>        -0.5085
      5 C4          1.4257   -2.4401   -2.4735 C.3       1 <0>         0.0789
      6 C5          1.4462   -3.9469   -2.4818 C.2       1 <0>        -0.0117
      7 C6          0.4883   -4.6370   -3.1554 C.2       1 <0>        -0.1917
      8 S1          1.0003   -6.3188   -2.8267 S.3       1 <0>         0.1265
      9 C7          2.4306   -5.9202   -1.8305 C.2       1 <0>         0.1704
     10 N2          2.3921   -4.5950   -1.8430 N.2       1 <0>        -0.5039
     11 C8          3.3984   -6.8246   -1.1743 C.ar      1 <0>        -0.0725
     12 C9          4.4540   -6.2991   -0.4278 C.ar      1 <0>        -0.0388
     13 C10         5.3536   -7.1483    0.1825 C.ar      1 <0>        -0.1283
     14 C11         5.2126   -8.5192    0.0562 C.ar      1 <0>        -0.0556
     15 C12         4.1697   -9.0486   -0.6815 C.ar      1 <0>        -0.1475
     16 C13         3.2573   -8.2097   -1.2938 C.ar      1 <0>         0.1288
     17 F1          2.2353   -8.7274   -2.0098 F         1 <0>        -0.1244
     18 H1          1.0039    1.9031    0.0027 H         1 <0>         0.0676
     19 H2         -0.5459    1.8868   -0.8726 H         1 <0>         0.0674
     20 H3         -0.5289    1.8773    0.9072 H         1 <0>         0.0776
     21 H4          0.5293   -0.3651    0.8851 H         1 <0>         0.0862
     22 H5         -1.0205   -0.3814    0.0098 H         1 <0>         0.0861
     23 H6          0.1910   -0.1364   -2.1398 H         1 <0>         0.1330
     24 H7          1.7408   -0.1202   -1.2645 H         1 <0>         0.1332
     25 H8          1.2261   -2.3006   -0.4474 H         1 <0>         0.4309
     26 H9          0.8985   -2.0790   -3.3565 H         1 <0>         0.1457
     27 H10         2.4483   -2.0628   -2.4812 H         1 <0>         0.1448
     28 H11        -0.3501   -4.2711   -3.7296 H         1 <0>         0.2101
     29 H12         4.5666   -5.2296   -0.3285 H         1 <0>         0.1446
     30 H13         6.1706   -6.7420    0.7602 H         1 <0>         0.1446
     31 H14         5.9206   -9.1787    0.5359 H         1 <0>         0.1471
     32 H15         4.0656  -10.1194   -0.7763 H         1 <0>         0.1514
     33 H16        -0.2085   -2.3156   -1.2577 H         1 <0>         0.4262
@<TRIPOS>BOND
     1    1    2 1
     2    1   18 1
     3    1   19 1
     4    1   20 1
     5    2    3 1
     6    2   21 1
     7    2   22 1
     8    3    4 1
     9    3   23 1
    10    3   24 1
    11    4    5 1
    12    4   25 1
    13    4   33 1
    14    5    6 1
    15    5   26 1
    16    5   27 1
    17    6   10 1
    18    6    7 2
    19    7    8 1
    20    7   28 1
    21    8    9 1
    22    9   10 2
    23    9   11 1
    24   11   16 ar
    25   11   12 ar
    26   12   13 ar
    27   12   29 1
    28   13   14 ar
    29   13   30 1
    30   14   15 ar
    31   14   31 1
    32   15   16 ar
    33   15   32 1
    34   16   17 1
@<TRIPOS>MOLECULE
ZINC41010015
   36    37     0     0     0
SMALL
USER_CHARGES

@<TRIPOS>ATOM
      1 C1          0.3637    1.7937    1.4379 C.3       1 <0>        -0.1900
      2 C2          0.3251    0.2984    1.1165 C.3       1 <0>        -0.0094
      3 N1         -1.0701   -0.1318    0.9545 N.4       1 <0>        -0.5089
      4 C3         -1.1071   -1.5676    0.6459 C.3       1 <0>         0.0784
      5 C4         -2.5384   -2.0089    0.4797 C.2       1 <0>        -0.0139
      6 C5         -3.0944   -2.0643   -0.7597 C.2       1 <0>        -0.1827
      7 S1         -4.7422   -2.6310   -0.3571 S.3       1 <0>         0.0871
      8 C6         -4.5112   -2.7320    1.4130 C.2       1 <0>         0.1935
      9 N2         -3.2486   -2.3456    1.5306 N.2       1 <0>        -0.5007
     10 C7         -5.4688   -3.1416    2.4626 C.ar      1 <0>        -0.0565
     11 C8         -6.7685   -2.6328    2.4626 C.ar      1 <0>        -0.0726
     12 C9         -7.6570   -3.0188    3.4446 C.ar      1 <0>        -0.1256
     13 C10        -7.2623   -3.9084    4.4282 C.ar      1 <0>        -0.0420
     14 C11        -5.9755   -4.4160    4.4341 C.ar      1 <0>        -0.1244
     15 C12        -5.0788   -4.0427    3.4539 C.ar      1 <0>        -0.0256
     16 C13        -3.6794   -4.6019    3.4580 C.3       1 <0>        -0.1135
     17 C14        -8.2383   -4.3258    5.4979 C.3       1 <0>        -0.1270
     18 H1          1.3989    2.1130    1.5581 H         1 <0>         0.1081
     19 H2         -0.0966    2.3525    0.6230 H         1 <0>         0.0804
     20 H3         -0.1839    1.9811    2.3616 H         1 <0>         0.0806
     21 H4          0.8727    0.1111    0.1928 H         1 <0>         0.1323
     22 H5          0.7854   -0.2604    1.9314 H         1 <0>         0.1323
     23 H6         -1.5769    0.0416    1.8096 H         1 <0>         0.4311
     24 H7         -0.5596   -1.7549   -0.2778 H         1 <0>         0.1448
     25 H8         -0.6468   -2.1264    1.4608 H         1 <0>         0.1443
     26 H9         -2.6612   -1.8304   -1.7210 H         1 <0>         0.2089
     27 H10        -7.0777   -1.9381    1.6957 H         1 <0>         0.1293
     28 H11        -8.6629   -2.6256    3.4460 H         1 <0>         0.1363
     29 H12        -5.6733   -5.1095    5.2050 H         1 <0>         0.1355
     30 H13        -3.0117   -3.9063    3.9664 H         1 <0>         0.0793
     31 H14        -3.6722   -5.5592    3.9791 H         1 <0>         0.0730
     32 H15        -3.3422   -4.7445    2.4313 H         1 <0>         0.0620
     33 H16        -8.7811   -5.2118    5.1688 H         1 <0>         0.0814
     34 H17        -7.6962   -4.5519    6.4161 H         1 <0>         0.0740
     35 H18        -8.9435   -3.5154    5.6825 H         1 <0>         0.0745
     36 H19        -1.4961    0.3854    0.2002 H         1 <0>         0.4257
@<TRIPOS>BOND
     1    1    2 1
     2    1   18 1
     3    1   19 1
     4    1   20 1
     5    2    3 1
     6    2   21 1
     7    2   22 1
     8    3    4 1
     9    3   23 1
    10    3   36 1
    11    4    5 1
    12    4   24 1
    13    4   25 1
    14    5    9 1
    15    5    6 2
    16    6    7 1
    17    6   26 1
    18    7    8 1
    19    8    9 2
    20    8   10 1
    21   10   15 ar
    22   10   11 ar
    23   11   12 ar
    24   11   27 1
    25   12   13 ar
    26   12   28 1
    27   13   14 ar
    28   13   17 1
    29   14   15 ar
    30   14   29 1
    31   15   16 1
    32   16   30 1
    33   16   31 1
    34   16   32 1
    35   17   33 1
    36   17   34 1
    37   17   35 1
@<TRIPOS>MOLECULE
ZINC94693059
   34    36     0     0     0
SMALL
USER_CHARGES

@<TRIPOS>ATOM
      1 C1         -0.0820    1.4222   -0.0256 C.3       1 <0>         0.0202
      2 O1         -0.0011   -0.0043    0.0003 O.3       1 <0>        -0.3013
      3 C2          0.6035   -0.6065   -1.0554 C.ar      1 <0>         0.1960
      4 C3          1.1111    0.1545   -2.0867 C.ar      1 <0>        -0.2391
      5 C4          1.7332   -0.4415   -3.1744 C.ar      1 <0>        -0.0103
      6 C5          1.8592   -1.8206   -3.2509 C.ar      1 <0>        -0.0891
      7 C6          1.3465   -2.6277   -2.2050 C.ar      1 <0>         0.0257
      8 C7          0.7186   -2.0118   -1.0962 C.ar      1 <0>        -0.0800
      9 C8          0.2152   -2.8123   -0.0579 C.ar      1 <0>        -0.0713
     10 C9          0.3423   -4.1663   -0.1284 C.ar      1 <0>        -0.1271
     11 C10         0.9655   -4.7710   -1.2174 C.ar      1 <0>        -0.0832
     12 C11         1.4547   -4.0248   -2.2471 C.ar      1 <0>        -0.1259
     13 C12         2.5215   -2.4426   -4.4126 C.2       1 <0>         0.2027
     14 N1          3.4486   -3.3917   -4.4452 N.2       1 <0>        -0.5060
     15 C13         3.9322   -3.8316   -5.5833 C.2       1 <0>        -0.0161
     16 C14         3.4828   -3.3128   -6.7565 C.2       1 <0>        -0.1854
     17 S1          2.2863   -2.1266   -6.1566 S.3       1 <0>         0.0841
     18 C15         4.9848   -4.9101   -5.5894 C.3       1 <0>         0.0793
     19 N2          6.3111   -4.3009   -5.4229 N.4       1 <0>        -0.6349
     20 H1          0.9229    1.8424   -0.0664 H         1 <0>         0.0642
     21 H2         -0.6439    1.7384   -0.9045 H         1 <0>         0.0649
     22 H3         -0.5866    1.7739    0.8742 H         1 <0>         0.1112
     23 H4          1.0230    1.2302   -2.0476 H         1 <0>         0.1437
     24 H5          2.1232    0.1753   -3.9705 H         1 <0>         0.1334
     25 H6         -0.2700   -2.3564    0.7925 H         1 <0>         0.1398
     26 H7         -0.0452   -4.7799    0.6715 H         1 <0>         0.1323
     27 H8          1.0542   -5.8469   -1.2503 H         1 <0>         0.1282
     28 H9          1.9349   -4.5067   -3.0859 H         1 <0>         0.1298
     29 H10         3.7665   -3.5533   -7.7704 H         1 <0>         0.2086
     30 H11         4.7984   -5.6044   -4.7700 H         1 <0>         0.1465
     31 H12         4.9484   -5.4481   -6.5367 H         1 <0>         0.1474
     32 H13         6.4837   -3.6583   -6.1814 H         1 <0>         0.4334
     33 H14         6.3448   -3.8030   -4.5459 H         1 <0>         0.4387
     34 H15         7.0158   -5.0230   -5.4269 H         1 <0>         0.4398
@<TRIPOS>BOND
     1    1    2 1
     2    1   20 1
     3    1   21 1
     4    1   22 1
     5    2    3 1
     6    3    8 ar
     7    3    4 ar
     8    4    5 ar
     9    4   23 1
    10    5    6 ar
    11    5   24 1
    12    6    7 ar
    13    6   13 1
    14    7   12 ar
    15    7    8 ar
    16    8    9 ar
    17    9   10 ar
    18    9   25 1
    19   10   11 ar
    20   10   26 1
    21   11   12 ar
    22   11   27 1
    23   12   28 1
    24   13   17 1
    25   13   14 2
    26   14   15 1
    27   15   16 2
    28   15   18 1
    29   16   17 1
    30   16   29 1
    31   18   19 1
    32   18   30 1
    33   18   31 1
    34   19   32 1
    35   19   33 1
    36   19   34 1
@<TRIPOS>MOLECULE
ZINC41010083
   39    41     0     0     0
SMALL
USER_CHARGES

@<TRIPOS>ATOM
      1 C1          0.0248    1.6401    0.3189 C.3       1 <0>        -0.1564
      2 C2          0.0162    0.1117    0.2511 C.3       1 <0>        -0.1515
      3 C3          0.7885   -0.4560    1.4436 C.3       1 <0>        -0.0102
      4 N1          0.7803   -1.9236    1.3785 N.4       1 <0>        -0.5085
      5 C4          1.5218   -2.4687    2.5235 C.3       1 <0>         0.0782
      6 C5          1.5134   -3.9742    2.4567 C.2       1 <0>        -0.0137
      7 C6          2.5561   -4.6366    1.8876 C.2       1 <0>        -0.1820
      8 S1          2.0182   -6.3308    2.0850 S.3       1 <0>         0.0950
      9 C7          0.4681   -5.9735    2.9013 C.2       1 <0>         0.1884
     10 N2          0.5030   -4.6480    2.9522 N.2       1 <0>        -0.5003
     11 C8         -0.5678   -6.9024    3.3918 C.ar      1 <0>        -0.0401
     12 C9         -1.0141   -7.9415    2.5897 C.ar      1 <0>        -0.0580
     13 C10        -1.9890   -8.8201    3.0458 C.ar      1 <0>        -0.1274
     14 C11        -2.5330   -8.6870    4.2881 C.ar      1 <0>        -0.0611
     15 C12        -2.1109   -7.6478    5.1350 C.ar      1 <0>        -0.0575
     16 C13        -1.1136   -6.7462    4.6900 C.ar      1 <0>        -0.0116
     17 C14        -0.6898   -5.7135    5.5376 C.ar      1 <0>        -0.1149
     18 C15        -1.2366   -5.5927    6.7796 C.ar      1 <0>        -0.0983
     19 C16        -2.2131   -6.4824    7.2218 C.ar      1 <0>        -0.1141
     20 C17        -2.6576   -7.4892    6.4204 C.ar      1 <0>        -0.0948
     21 H1          1.0535    1.9994    0.2898 H         1 <0>         0.0674
     22 H2         -0.5255    2.0446   -0.5307 H         1 <0>         0.0776
     23 H3         -0.4476    1.9654    1.2458 H         1 <0>         0.0676
     24 H4         -1.0125   -0.2475    0.2802 H         1 <0>         0.0863
     25 H5          0.4886   -0.2136   -0.6758 H         1 <0>         0.0861
     26 H6          1.8172   -0.0968    1.4145 H         1 <0>         0.1330
     27 H7          0.3162   -0.1308    2.3705 H         1 <0>         0.1330
     28 H8         -0.1720   -2.2561    1.4054 H         1 <0>         0.4315
     29 H9          2.5505   -2.1095    2.4944 H         1 <0>         0.1455
     30 H10         1.0495   -2.1434    3.4504 H         1 <0>         0.1445
     31 H11         3.4586   -4.2474    1.4400 H         1 <0>         0.2098
     32 H12        -0.6000   -8.0691    1.6004 H         1 <0>         0.1314
     33 H13        -2.3219   -9.6225    2.4042 H         1 <0>         0.1391
     34 H14        -3.2899   -9.3811    4.6223 H         1 <0>         0.1397
     35 H15         0.0670   -5.0171    5.2079 H         1 <0>         0.1268
     36 H16        -0.9082   -4.7960    7.4307 H         1 <0>         0.1265
     37 H17        -2.6308   -6.3656    8.2109 H         1 <0>         0.1306
     38 H18        -3.4160   -8.1711    6.7757 H         1 <0>         0.1362
     39 H19         1.2176   -2.2247    0.5205 H         1 <0>         0.4260
@<TRIPOS>BOND
     1    1    2 1
     2    1   21 1
     3    1   22 1
     4    1   23 1
     5    2    3 1
     6    2   24 1
     7    2   25 1
     8    3    4 1
     9    3   26 1
    10    3   27 1
    11    4    5 1
    12    4   28 1
    13    4   39 1
    14    5    6 1
    15    5   29 1
    16    5   30 1
    17    6   10 1
    18    6    7 2
    19    7    8 1
    20    7   31 1
    21    8    9 1
    22    9   10 2
    23    9   11 1
    24   11   16 ar
    25   11   12 ar
    26   12   13 ar
    27   12   32 1
    28   13   14 ar
    29   13   33 1
    30   14   15 ar
    31   14   34 1
    32   15   20 ar
    33   15   16 ar
    34   16   17 ar
    35   17   18 ar
    36   17   35 1
    37   18   19 ar
    38   18   36 1
    39   19   20 ar
    40   19   37 1
    41   20   38 1
@<TRIPOS>MOLECULE
ZINC70842584
   33    34     0     0     0
SMALL
USER_CHARGES

@<TRIPOS>ATOM
      1 C1         -0.4765    1.4576    0.1074 C.3       1 <0>        -0.1273
      2 C2         -0.2167   -0.0257    0.0484 C.ar      1 <0>        -0.0423
      3 C3         -0.0692   -0.6510   -1.1771 C.ar      1 <0>        -0.1231
      4 C4          0.1692   -2.0083   -1.2380 C.ar      1 <0>        -0.0719
      5 C5          0.2615   -2.7510   -0.0600 C.ar      1 <0>        -0.0536
      6 C6          0.1118   -2.1145    1.1725 C.ar      1 <0>        -0.0308
      7 C7         -0.1211   -0.7552    1.2198 C.ar      1 <0>        -0.1238
      8 C8          0.2101   -2.9086    2.4495 C.3       1 <0>        -0.1120
      9 C9          0.5164   -4.2064   -0.1179 C.2       1 <0>         0.1926
     10 N1          1.3772   -4.9380    0.5757 N.2       1 <0>        -0.5065
     11 C10         1.4717   -6.2341    0.3935 C.2       1 <0>        -0.0121
     12 C11         0.6766   -6.8494   -0.5217 C.2       1 <0>        -0.1766
     13 S1         -0.2588   -5.4546   -1.1367 S.3       1 <0>         0.0894
     14 C12         2.4604   -7.0391    1.1970 C.3       1 <0>         0.1175
     15 H1          2.4579   -8.0715    0.8473 H         1 <0>         0.1527
     16 C13         3.8603   -6.4460    1.0253 C.3       1 <0>        -0.1770
     17 N2          2.0835   -7.0020    2.6163 N.4       1 <0>        -0.6344
     18 H2          0.4729    1.9914    0.1487 H         1 <0>         0.0811
     19 H3         -1.0281    1.7655   -0.7809 H         1 <0>         0.0752
     20 H4         -1.0623    1.6888    0.9970 H         1 <0>         0.0742
     21 H5         -0.1413   -0.0752   -2.0880 H         1 <0>         0.1369
     22 H6          0.2838   -2.4953   -2.1952 H         1 <0>         0.1303
     23 H7         -0.2327   -0.2604    2.1733 H         1 <0>         0.1350
     24 H8          1.2568   -3.0048    2.7379 H         1 <0>         0.0773
     25 H9         -0.3388   -2.3959    3.2394 H         1 <0>         0.0734
     26 H10        -0.2167   -3.8996    2.2948 H         1 <0>         0.0582
     27 H11         0.6220   -7.8921   -0.7979 H         1 <0>         0.2092
     28 H12         3.8628   -5.4136    1.3750 H         1 <0>         0.0900
     29 H13         4.5754   -7.0282    1.6064 H         1 <0>         0.0858
     30 H14         4.1399   -6.4735   -0.0279 H         1 <0>         0.1034
     31 H15         1.1604   -7.3932    2.7295 H         1 <0>         0.4345
     32 H16         2.7455   -7.5410    3.1543 H         1 <0>         0.4373
     33 H17         2.0859   -6.0463    2.9401 H         1 <0>         0.4373
@<TRIPOS>BOND
     1    1    2 1
     2    1   18 1
     3    1   19 1
     4    1   20 1
     5    2    7 ar
     6    2    3 ar
     7    3    4 ar
     8    3   21 1
     9    4    5 ar
    10    4   22 1
    11    5    6 ar
    12    5    9 1
    13    6    7 ar
    14    6    8 1
    15    7   23 1
    16    8   24 1
    17    8   25 1
    18    8   26 1
    19    9   13 1
    20    9   10 2
    21   10   11 1
    22   11   12 2
    23   11   14 1
    24   12   13 1
    25   12   27 1
    26   14   15 1
    27   14   16 1
    28   14   17 1
    29   16   28 1
    30   16   29 1
    31   16   30 1
    32   17   31 1
    33   17   32 1
    34   17   33 1
@<TRIPOS>MOLECULE
ZINC70842589
   33    34     0     0     0
SMALL
USER_CHARGES

@<TRIPOS>ATOM
      1 C1         -0.4763    1.4576    0.1071 C.3       1 <0>        -0.1272
      2 C2         -0.2166   -0.0257    0.0482 C.ar      1 <0>        -0.0402
      3 C3         -0.0694   -0.6511   -1.1772 C.ar      1 <0>        -0.1258
      4 C4          0.1690   -2.0085   -1.2380 C.ar      1 <0>        -0.0706
      5 C5          0.2614   -2.7511   -0.0599 C.ar      1 <0>        -0.0598
      6 C6          0.1119   -2.1143    1.1726 C.ar      1 <0>        -0.0235
      7 C7         -0.1209   -0.7550    1.2197 C.ar      1 <0>        -0.1247
      8 C8          0.2103   -2.9083    2.4497 C.3       1 <0>        -0.1139
      9 C9          0.5162   -4.2065   -0.1176 C.2       1 <0>         0.2071
     10 N1          1.3769   -4.9381    0.5761 N.2       1 <0>        -0.4931
     11 C10         1.4714   -6.2342    0.3940 C.2       1 <0>         0.0364
     12 C11         0.6761   -6.8495   -0.5211 C.2       1 <0>        -0.2619
     13 S1         -0.2592   -5.4547   -1.1362 S.3       1 <0>         0.0960
     14 C12         2.4600   -7.0392    1.1975 C.3       1 <0>         0.1096
     15 H1          2.1805   -7.0115    2.2507 H         1 <0>         0.1571
     16 C13         3.8599   -6.4461    1.0258 C.3       1 <0>        -0.1745
     17 N2          2.4565   -8.4306    0.7264 N.4       1 <0>        -0.6349
     18 H2          0.4732    1.9914    0.1482 H         1 <0>         0.0812
     19 H3         -1.0280    1.7654   -0.7812 H         1 <0>         0.0750
     20 H4         -1.0620    1.6890    0.9968 H         1 <0>         0.0745
     21 H5         -0.1415   -0.0754   -2.0881 H         1 <0>         0.1369
     22 H6          0.2834   -2.4956   -2.1951 H         1 <0>         0.1298
     23 H7         -0.2324   -0.2601    2.1732 H         1 <0>         0.1362
     24 H8          1.2571   -3.0045    2.7380 H         1 <0>         0.0816
     25 H9         -0.3385   -2.3955    3.2396 H         1 <0>         0.0733
     26 H10        -0.2165   -3.8993    2.2952 H         1 <0>         0.0607
     27 H11         0.6215   -7.8922   -0.7971 H         1 <0>         0.1967
     28 H12         4.1395   -6.4738   -0.0274 H         1 <0>         0.0802
     29 H13         3.8626   -5.4137    1.3753 H         1 <0>         0.1152
     30 H14         4.5750   -7.0284    1.6069 H         1 <0>         0.0875
     31 H15         2.7153   -8.4562   -0.2485 H         1 <0>         0.4350
     32 H16         3.1184   -8.9695    1.2644 H         1 <0>         0.4436
     33 H17         1.5333   -8.8216    0.8397 H         1 <0>         0.4366
@<TRIPOS>BOND
     1    1    2 1
     2    1   18 1
     3    1   19 1
     4    1   20 1
     5    2    7 ar
     6    2    3 ar
     7    3    4 ar
     8    3   21 1
     9    4    5 ar
    10    4   22 1
    11    5    6 ar
    12    5    9 1
    13    6    7 ar
    14    6    8 1
    15    7   23 1
    16    8   24 1
    17    8   25 1
    18    8   26 1
    19    9   13 1
    20    9   10 2
    21   10   11 1
    22   11   12 2
    23   11   14 1
    24   12   13 1
    25   12   27 1
    26   14   15 1
    27   14   16 1
    28   14   17 1
    29   16   28 1
    30   16   29 1
    31   16   30 1
    32   17   31 1
    33   17   32 1
    34   17   33 1
@<TRIPOS>MOLECULE
ZINC52859411
   21    22     0     0     0
SMALL
USER_CHARGES

@<TRIPOS>ATOM
      1 C1         -0.0167    1.3803    0.0096 C.ar      1 <0>        -0.0618
      2 C2          1.1678    2.0944    0.0022 C.ar      1 <0>        -0.1353
      3 C3          2.3789    1.4289   -0.0135 C.ar      1 <0>         0.1268
      4 C4          2.4042    0.0314   -0.0212 C.ar      1 <0>        -0.0345
      5 C5          1.2052   -0.6818   -0.0131 C.ar      1 <0>        -0.0359
      6 C6          0.0021   -0.0041    0.0020 C.ar      1 <0>        -0.0479
      7 Cl1        -1.4907   -0.8902    0.0121 Cl        1 <0>        -0.0464
      8 C7          3.6957   -0.6878   -0.0384 C.2       1 <0>         0.1377
      9 N1          3.9323   -1.9921   -0.0533 N.2       1 <0>        -0.4769
     10 C8          5.1578   -2.4621   -0.0675 C.2       1 <0>         0.0372
     11 C9          6.2123   -1.6044   -0.0671 C.2       1 <0>        -0.1832
     12 S1          5.3592   -0.0326   -0.0527 S.3       1 <0>         0.0740
     13 C10         5.3952   -3.9502   -0.0837 C.3       1 <0>         0.0360
     14 Cl2         5.4773   -4.5271   -1.7899 Cl        1 <0>        -0.1652
     15 F1          3.5353    2.1273   -0.0216 F         1 <0>        -0.1197
     16 H1         -0.9605    1.9050    0.0260 H         1 <0>         0.1525
     17 H2          1.1462    3.1741    0.0082 H         1 <0>         0.1569
     18 H3          1.2179   -1.7617   -0.0194 H         1 <0>         0.1574
     19 H4          7.2717   -1.8140   -0.0773 H         1 <0>         0.2054
     20 H5          6.3352   -4.1736    0.4210 H         1 <0>         0.1124
     21 H6          4.5775   -4.4543    0.4314 H         1 <0>         0.1108
@<TRIPOS>BOND
     1    1    6 ar
     2    1    2 ar
     3    1   16 1
     4    2    3 ar
     5    2   17 1
     6    3    4 ar
     7    3   15 1
     8    4    5 ar
     9    4    8 1
    10    5    6 ar
    11    5   18 1
    12    6    7 1
    13    8   12 1
    14    8    9 2
    15    9   10 1
    16   10   11 2
    17   10   13 1
    18   11   12 1
    19   11   19 1
    20   13   14 1
    21   13   20 1
    22   13   21 1
@<TRIPOS>MOLECULE
ZINC75793737
   35    36     0     0     0
SMALL
USER_CHARGES

@<TRIPOS>ATOM
      1 C1         -0.0408    1.5507   -0.0206 C.3       1 <0>        -0.1738
      2 C2         -0.0071    0.0211   -0.0161 C.3       1 <0>         0.1089
      3 H1          0.5258   -0.3280    0.8684 H         1 <0>         0.1562
      4 C3         -1.4163   -0.5125    0.0034 C.2       1 <0>         0.0483
      5 C4         -1.8244   -1.3913   -0.9492 C.2       1 <0>        -0.2757
      6 S1         -3.5172   -1.6662   -0.4418 S.3       1 <0>         0.0748
      7 C5         -3.4968   -0.5830    0.9806 C.2       1 <0>         0.2255
      8 N1         -2.2501   -0.1329    0.9440 N.2       1 <0>        -0.5187
      9 C6         -4.5768   -0.2765    1.9418 C.ar      1 <0>        -0.1185
     10 C7         -4.3469    0.6149    2.9916 C.ar      1 <0>        -0.0019
     11 C8         -5.3557    0.8985    3.8861 C.ar      1 <0>        -0.2053
     12 C9         -6.6020    0.2981    3.7442 C.ar      1 <0>         0.2567
     13 C10        -6.8340   -0.5904    2.6998 C.ar      1 <0>        -0.2020
     14 C11        -5.8310   -0.8734    1.7985 C.ar      1 <0>        -0.0249
     15 N2         -7.6214    0.5873    4.6514 N.pl3     1 <0>        -0.6220
     16 C12        -7.3444    1.4226    5.8226 C.3       1 <0>         0.0832
     17 C13        -8.9690    0.0558    4.4330 C.3       1 <0>         0.0782
     18 N3          0.6809   -0.4571   -1.2227 N.4       1 <0>        -0.6346
     19 H2          0.9785    1.9366   -0.0347 H         1 <0>         0.0865
     20 H3         -0.5737    1.8997   -0.9051 H         1 <0>         0.0800
     21 H4         -0.5513    1.9055    0.8747 H         1 <0>         0.1149
     22 H5         -1.2779   -1.8084   -1.7822 H         1 <0>         0.1939
     23 H6         -3.3791    1.0812    3.1026 H         1 <0>         0.1355
     24 H7         -5.1783    1.5876    4.6986 H         1 <0>         0.1358
     25 H8         -7.8027   -1.0557    2.5926 H         1 <0>         0.1388
     26 H9         -6.0133   -1.5595    0.9847 H         1 <0>         0.1274
     27 H10        -7.5190    2.4690    5.5722 H         1 <0>         0.0580
     28 H11        -8.0021    1.1303    6.6412 H         1 <0>         0.0758
     29 H12        -6.3059    1.2901    6.1260 H         1 <0>         0.0736
     30 H13        -8.9616   -0.6095    3.5696 H         1 <0>         0.0819
     31 H14        -9.2886   -0.4980    5.3157 H         1 <0>         0.0662
     32 H15        -9.6594    0.8795    4.2511 H         1 <0>         0.0630
     33 H16         1.6245   -0.0999   -1.2357 H         1 <0>         0.4427
     34 H17         0.7032   -1.4659   -1.2197 H         1 <0>         0.4366
     35 H18         0.1876   -0.1341   -2.0415 H         1 <0>         0.4348
@<TRIPOS>BOND
     1    1    2 1
     2    1   19 1
     3    1   20 1
     4    1   21 1
     5    2    3 1
     6    2    4 1
     7    2   18 1
     8    4    8 1
     9    4    5 2
    10    5    6 1
    11    5   22 1
    12    6    7 1
    13    7    8 2
    14    7    9 1
    15    9   14 ar
    16    9   10 ar
    17   10   11 ar
    18   10   23 1
    19   11   12 ar
    20   11   24 1
    21   12   13 ar
    22   12   15 1
    23   13   14 ar
    24   13   25 1
    25   14   26 1
    26   15   16 1
    27   15   17 1
    28   16   27 1
    29   16   28 1
    30   16   29 1
    31   17   30 1
    32   17   31 1
    33   17   32 1
    34   18   33 1
    35   18   34 1
    36   18   35 1
@<TRIPOS>MOLECULE
ZINC75793738
   35    36     0     0     0
SMALL
USER_CHARGES

@<TRIPOS>ATOM
      1 C1          0.0189    1.5513    0.0073 C.3       1 <0>        -0.1763
      2 C2          0.0219    0.0213    0.0036 C.3       1 <0>         0.1169
      3 H1          0.5477   -0.3430    0.8862 H         1 <0>         0.1514
      4 C3          0.7176   -0.4767   -1.2369 C.2       1 <0>        -0.0010
      5 C4          1.7603   -1.3417   -1.1315 C.2       1 <0>        -0.1898
      6 S1          2.1710   -1.5757   -2.8564 S.3       1 <0>         0.0692
      7 C5          0.9121   -0.4984   -3.5282 C.2       1 <0>         0.2123
      8 N1          0.3138   -0.0796   -2.4215 N.2       1 <0>        -0.5320
      9 C6          0.6146   -0.1683   -4.9377 C.ar      1 <0>        -0.1149
     10 C7         -0.4234    0.7134   -5.2457 C.ar      1 <0>        -0.0063
     11 C8         -0.6984    1.0192   -6.5607 C.ar      1 <0>        -0.2054
     12 C9          0.0567    0.4507   -7.5808 C.ar      1 <0>         0.2548
     13 C10         1.0909   -0.4281   -7.2773 C.ar      1 <0>        -0.2008
     14 C11         1.3747   -0.7329   -5.9639 C.ar      1 <0>        -0.0265
     15 N2         -0.2241    0.7623   -8.9112 N.pl3     1 <0>        -0.6225
     16 C12        -1.3899    1.5862   -9.2402 C.3       1 <0>         0.0838
     17 C13         0.6468    0.2655   -9.9794 C.3       1 <0>         0.0781
     18 N3         -1.3620   -0.4711    0.0201 N.4       1 <0>        -0.6337
     19 H2          1.0458    1.9167   -0.0049 H         1 <0>         0.1030
     20 H3         -0.5069    1.9157   -0.8753 H         1 <0>         0.0898
     21 H4         -0.4843    1.9116    0.9046 H         1 <0>         0.0847
     22 H5          2.2150   -1.7695   -0.2502 H         1 <0>         0.2063
     23 H6         -1.0104    1.1549   -4.4539 H         1 <0>         0.1323
     24 H7         -1.5014    1.7007   -6.7995 H         1 <0>         0.1346
     25 H8          1.6752   -0.8685   -8.0717 H         1 <0>         0.1385
     26 H9          2.1813   -1.4115   -5.7286 H         1 <0>         0.1276
     27 H10        -1.1020    2.6375   -9.2453 H         1 <0>         0.0578
     28 H11        -1.7655    1.3076  -10.2248 H         1 <0>         0.0758
     29 H12        -2.1695    1.4266   -8.4954 H         1 <0>         0.0728
     30 H13         1.4012   -0.3967   -9.5547 H         1 <0>         0.0820
     31 H14         0.0506   -0.2832  -10.7085 H         1 <0>         0.0662
     32 H15         1.1364    1.1068  -10.4698 H         1 <0>         0.0631
     33 H16        -1.8487   -0.1338   -0.7969 H         1 <0>         0.4379
     34 H17        -1.3600   -1.4801    0.0177 H         1 <0>         0.4343
     35 H18        -1.8278   -0.1376    0.8507 H         1 <0>         0.4361
@<TRIPOS>BOND
     1    1    2 1
     2    1   19 1
     3    1   20 1
     4    1   21 1
     5    2    3 1
     6    2    4 1
     7    2   18 1
     8    4    8 1
     9    4    5 2
    10    5    6 1
    11    5   22 1
    12    6    7 1
    13    7    8 2
    14    7    9 1
    15    9   14 ar
    16    9   10 ar
    17   10   11 ar
    18   10   23 1
    19   11   12 ar
    20   11   24 1
    21   12   13 ar
    22   12   15 1
    23   13   14 ar
    24   13   25 1
    25   14   26 1
    26   15   16 1
    27   15   17 1
    28   16   27 1
    29   16   28 1
    30   16   29 1
    31   17   30 1
    32   17   31 1
    33   17   32 1
    34   18   33 1
    35   18   34 1
    36   18   35 1
@<TRIPOS>MOLECULE
ZINC70304164
   38    39     0     0     0
SMALL
USER_CHARGES

@<TRIPOS>ATOM
      1 C1         -0.0178    1.4648    0.0101 C.3       1 <0>        -0.0455
      2 N1          0.0021   -0.0041    0.0020 N.4       1 <0>        -0.5077
      3 C2          0.6897   -0.4778   -1.2066 C.3       1 <0>        -0.0113
      4 C3          0.7104   -2.0077   -1.2150 C.3       1 <0>         0.0246
      5 N2          1.3980   -2.4814   -2.4236 N.3       1 <0>        -0.5297
      6 C4          0.6373   -2.1356   -3.6318 C.3       1 <0>         0.0125
      7 C5          1.6477   -3.9274   -2.3547 C.3       1 <0>         0.1295
      8 C6          2.5613   -4.3337   -3.4821 C.2       1 <0>         0.0536
      9 C7          3.9016   -4.4260   -3.2730 C.2       1 <0>        -0.1840
     10 S1          4.4553   -4.9269   -4.8981 S.3       1 <0>         0.0328
     11 C8          2.8458   -4.9585   -5.6763 C.2       1 <0>         0.1666
     12 N3          2.0641   -4.6043   -4.6660 N.2       1 <0>        -0.5014
     13 C9          2.4837   -5.2947   -7.0700 C.ar      1 <0>        -0.0280
     14 C10         1.1498   -5.2503   -7.4776 C.ar      1 <0>        -0.0696
     15 C11         0.8186   -5.5651   -8.7793 C.ar      1 <0>        -0.1209
     16 C12         1.8055   -5.9247   -9.6798 C.ar      1 <0>        -0.0931
     17 C13         3.1298   -5.9711   -9.2819 C.ar      1 <0>        -0.1156
     18 C14         3.4750   -5.6522   -7.9848 C.ar      1 <0>        -0.0891
     19 H1          1.0047    1.8421    0.0024 H         1 <0>         0.1247
     20 H2         -0.5450    1.8259   -0.8730 H         1 <0>         0.1233
     21 H3         -0.5280    1.8163    0.9069 H         1 <0>         0.1277
     22 H4          0.4901   -0.3383    0.8195 H         1 <0>         0.4310
     23 H5          0.1625   -0.1167   -2.0897 H         1 <0>         0.1316
     24 H6          1.7123   -0.1005   -1.2143 H         1 <0>         0.1413
     25 H7          1.2376   -2.3687   -0.3319 H         1 <0>         0.0984
     26 H8         -0.3122   -2.3849   -1.2073 H         1 <0>         0.0592
     27 H9          0.5269   -1.0530   -3.6942 H         1 <0>         0.0652
     28 H10         1.1687   -2.4979   -4.5118 H         1 <0>         0.0907
     29 H11        -0.3481   -2.5992   -3.5859 H         1 <0>         0.0380
     30 H12         2.1170   -4.1700   -1.4013 H         1 <0>         0.0957
     31 H13         0.7028   -4.4638   -2.4414 H         1 <0>         0.0608
     32 H14         4.4734   -4.2463   -2.3746 H         1 <0>         0.1992
     33 H15         0.3784   -4.9704   -6.7754 H         1 <0>         0.1325
     34 H16        -0.2134   -5.5311   -9.0960 H         1 <0>         0.1327
     35 H17         1.5410   -6.1706  -10.6976 H         1 <0>         0.1320
     36 H18         3.8954   -6.2529   -9.9896 H         1 <0>         0.1347
     37 H19         4.5097   -5.6838   -7.6768 H         1 <0>         0.1275
     38 H20        -0.9445   -0.3533    0.0092 H         1 <0>         0.4297
@<TRIPOS>BOND
     1    1    2 1
     2    1   19 1
     3    1   20 1
     4    1   21 1
     5    2    3 1
     6    2   22 1
     7    2   38 1
     8    3    4 1
     9    3   23 1
    10    3   24 1
    11    4    5 1
    12    4   25 1
    13    4   26 1
    14    5    6 1
    15    5    7 1
    16    6   27 1
    17    6   28 1
    18    6   29 1
    19    7    8 1
    20    7   30 1
    21    7   31 1
    22    8   12 1
    23    8    9 2
    24    9   10 1
    25    9   32 1
    26   10   11 1
    27   11   12 2
    28   11   13 1
    29   13   18 ar
    30   13   14 ar
    31   14   15 ar
    32   14   33 1
    33   15   16 ar
    34   15   34 1
    35   16   17 ar
    36   16   35 1
    37   17   18 ar
    38   17   36 1
    39   18   37 1
@<TRIPOS>MOLECULE
ZINC94902815
   42    43     0     0     0
SMALL
USER_CHARGES

@<TRIPOS>ATOM
      1 C1         -0.0187    1.5258    0.0104 C.3       1 <0>        -0.1900
      2 C2          0.0021   -0.0041    0.0020 C.3       1 <0>        -0.0095
      3 N1         -1.3761   -0.5125    0.0124 N.4       1 <0>        -0.5089
      4 C3         -1.3562   -1.9814    0.0044 C.3       1 <0>         0.0780
      5 C4         -2.7700   -2.5030    0.0151 C.2       1 <0>        -0.0081
      6 C5         -3.3827   -2.8334   -1.1528 C.2       1 <0>        -0.1861
      7 S1         -4.9783   -3.3693   -0.5480 S.3       1 <0>         0.0886
      8 C6         -4.6557   -3.0954    1.1892 C.2       1 <0>         0.1906
      9 N2         -3.4098   -2.6441    1.1520 N.2       1 <0>        -0.5119
     10 C7         -5.5389   -3.3177    2.3541 C.ar      1 <0>        -0.0510
     11 C8         -5.0859   -3.0291    3.6421 C.ar      1 <0>        -0.0590
     12 C9         -5.9150   -3.2388    4.7248 C.ar      1 <0>        -0.1185
     13 C10        -7.1927   -3.7345    4.5357 C.ar      1 <0>        -0.0370
     14 C11        -7.6477   -4.0232    3.2614 C.ar      1 <0>        -0.1151
     15 C12        -6.8310   -3.8117    2.1697 C.ar      1 <0>        -0.0786
     16 C13        -8.0926   -3.9616    5.7230 C.3       1 <0>        -0.0887
     17 C14        -8.9010   -2.6925    6.0003 C.3       1 <0>        -0.0900
     18 C15        -9.9030   -2.9617    7.1248 C.3       1 <0>        -0.1511
     19 C16        -7.9542   -1.5662    6.4196 C.3       1 <0>        -0.1534
     20 H1          1.0039    1.9031    0.0027 H         1 <0>         0.1081
     21 H2         -0.5459    1.8868   -0.8726 H         1 <0>         0.0804
     22 H3         -0.5289    1.8773    0.9072 H         1 <0>         0.0806
     23 H4          0.5123   -0.3556   -0.8948 H         1 <0>         0.1324
     24 H5          0.5293   -0.3651    0.8851 H         1 <0>         0.1324
     25 H6         -1.8484   -0.1871    0.8426 H         1 <0>         0.4309
     26 H7         -0.8460   -2.3329   -0.8924 H         1 <0>         0.1453
     27 H8         -0.8290   -2.3425    0.8874 H         1 <0>         0.1445
     28 H9         -3.0096   -2.7853   -2.1651 H         1 <0>         0.2095
     29 H10        -4.0885   -2.6427    3.7910 H         1 <0>         0.1338
     30 H11        -5.5656   -3.0158    5.7221 H         1 <0>         0.1352
     31 H12        -8.6460   -4.4103    3.1205 H         1 <0>         0.1367
     32 H13        -7.1891   -4.0325    1.1751 H         1 <0>         0.1281
     33 H14        -8.7728   -4.7865    5.5109 H         1 <0>         0.0806
     34 H15        -7.4875   -4.2050    6.5963 H         1 <0>         0.0803
     35 H16        -9.4376   -2.3991    5.0981 H         1 <0>         0.0720
     36 H17        -9.3664   -3.2551    8.0271 H         1 <0>         0.0574
     37 H18       -10.4788   -2.0575    7.3224 H         1 <0>         0.0589
     38 H19       -10.5775   -3.7641    6.8261 H         1 <0>         0.0573
     39 H20        -7.4176   -1.8596    7.3219 H         1 <0>         0.0567
     40 H21        -7.2403   -1.3745    5.6185 H         1 <0>         0.0552
     41 H22        -8.5300   -0.6621    6.6172 H         1 <0>         0.0569
     42 H23        -1.8641   -0.1783   -0.8050 H         1 <0>         0.4259
@<TRIPOS>BOND
     1    1    2 1
     2    1   20 1
     3    1   21 1
     4    1   22 1
     5    2    3 1
     6    2   23 1
     7    2   24 1
     8    3    4 1
     9    3   25 1
    10    3   42 1
    11    4    5 1
    12    4   26 1
    13    4   27 1
    14    5    9 1
    15    5    6 2
    16    6    7 1
    17    6   28 1
    18    7    8 1
    19    8    9 2
    20    8   10 1
    21   10   15 ar
    22   10   11 ar
    23   11   12 ar
    24   11   29 1
    25   12   13 ar
    26   12   30 1
    27   13   14 ar
    28   13   16 1
    29   14   15 ar
    30   14   31 1
    31   15   32 1
    32   16   17 1
    33   16   33 1
    34   16   34 1
    35   17   18 1
    36   17   19 1
    37   17   35 1
    38   18   36 1
    39   18   37 1
    40   18   38 1
    41   19   39 1
    42   19   40 1
    43   19   41 1
@<TRIPOS>MOLECULE
ZINC40999768
   32    33     0     0     0
SMALL
USER_CHARGES

@<TRIPOS>ATOM
      1 C1         -0.0173    1.4248    0.0099 C.3       1 <0>         0.0223
      2 O1          0.0021   -0.0041    0.0020 O.3       1 <0>        -0.3071
      3 C2          0.6058   -0.6071   -1.0557 C.ar      1 <0>         0.1772
      4 C3          0.6547   -1.9895   -1.1283 C.ar      1 <0>        -0.1599
      5 C4          1.2746   -2.6074   -2.2144 C.ar      1 <0>         0.0381
      6 C5          1.8429   -1.8298   -3.2234 C.ar      1 <0>        -0.1369
      7 C6          1.7898   -0.4481   -3.1432 C.ar      1 <0>         0.1716
      8 C7          1.1673    0.1626   -2.0642 C.ar      1 <0>        -0.2710
      9 O2          2.3436    0.3104   -4.1255 O.3       1 <0>        -0.3082
     10 C8          2.2526    1.7290   -3.9791 C.3       1 <0>         0.0222
     11 C9          1.3295   -4.0830   -2.2957 C.2       1 <0>         0.1809
     12 N1          1.8695   -4.8547   -3.2284 N.2       1 <0>        -0.5010
     13 C10         1.8258   -6.1632   -3.1396 C.2       1 <0>        -0.0151
     14 C11         1.2174   -6.7500   -2.0747 C.2       1 <0>        -0.1823
     15 S1          0.6922   -5.3067   -1.1584 S.3       1 <0>         0.1125
     16 C12         2.4484   -7.0140   -4.2164 C.3       1 <0>         0.0795
     17 N2          1.4878   -7.1969   -5.3126 N.4       1 <0>        -0.6351
     18 H1          1.0053    1.8021    0.0021 H         1 <0>         0.0606
     19 H2         -0.5445    1.7859   -0.8732 H         1 <0>         0.0604
     20 H3         -0.5275    1.7763    0.9067 H         1 <0>         0.1103
     21 H4          0.2138   -2.5880   -0.3449 H         1 <0>         0.1390
     22 H5          2.3241   -2.3045   -4.0657 H         1 <0>         0.1450
     23 H6          1.1234    1.2402   -2.0070 H         1 <0>         0.1457
     24 H7          2.7515    2.0320   -3.0586 H         1 <0>         0.0606
     25 H8          2.7328    2.2136   -4.8291 H         1 <0>         0.1095
     26 H9          1.2039    2.0234   -3.9378 H         1 <0>         0.0603
     27 H10         1.0906   -7.7974   -1.8438 H         1 <0>         0.2117
     28 H11         3.3437   -6.5217   -4.5962 H         1 <0>         0.1478
     29 H12         2.7163   -7.9859   -3.8020 H         1 <0>         0.1486
     30 H13         0.6591   -7.6526   -4.9611 H         1 <0>         0.4336
     31 H14         1.2398   -6.2972   -5.6962 H         1 <0>         0.4388
     32 H15         1.9047   -7.7666   -6.0336 H         1 <0>         0.4403
@<TRIPOS>BOND
     1    1    2 1
     2    1   18 1
     3    1   19 1
     4    1   20 1
     5    2    3 1
     6    3    8 ar
     7    3    4 ar
     8    4    5 ar
     9    4   21 1
    10    5    6 ar
    11    5   11 1
    12    6    7 ar
    13    6   22 1
    14    7    8 ar
    15    7    9 1
    16    8   23 1
    17    9   10 1
    18   10   24 1
    19   10   25 1
    20   10   26 1
    21   11   15 1
    22   11   12 2
    23   12   13 1
    24   13   14 2
    25   13   16 1
    26   14   15 1
    27   14   27 1
    28   16   17 1
    29   16   28 1
    30   16   29 1
    31   17   30 1
    32   17   31 1
    33   17   32 1
@<TRIPOS>MOLECULE
ZINC40420180
   30    31     0     0     0
SMALL
USER_CHARGES

@<TRIPOS>ATOM
      1 C1         -0.0187    1.5258    0.0104 C.3       1 <0>        -0.1901
      2 C2          0.0021   -0.0041    0.0020 C.3       1 <0>        -0.0095
      3 N1         -1.3761   -0.5125    0.0124 N.4       1 <0>        -0.5090
      4 C3         -1.3562   -1.9814    0.0044 C.3       1 <0>         0.0779
      5 C4         -2.7700   -2.5030    0.0151 C.2       1 <0>        -0.0103
      6 C5         -3.3826   -2.8334   -1.1527 C.2       1 <0>        -0.1799
      7 S1         -4.9779   -3.3700   -0.5480 S.3       1 <0>         0.1022
      8 C6         -4.6555   -3.0964    1.1893 C.2       1 <0>         0.1775
      9 N2         -3.4099   -2.6442    1.1521 N.2       1 <0>        -0.5042
     10 C7         -5.5384   -3.3196    2.3542 C.ar      1 <0>        -0.0268
     11 C8         -5.0853   -3.0307    3.6422 C.ar      1 <0>        -0.0580
     12 C9         -5.9137   -3.2406    4.7250 C.ar      1 <0>        -0.0914
     13 C10        -7.1922   -3.7372    4.5359 C.ar      1 <0>        -0.0635
     14 C11        -7.6471   -4.0260    3.2607 C.ar      1 <0>        -0.0864
     15 C12        -6.8301   -3.8145    2.1695 C.ar      1 <0>        -0.0782
     16 Br1        -8.3213   -4.0226    6.0257 Br        1 <0>        -0.0227
     17 H1          1.0039    1.9031    0.0027 H         1 <0>         0.1083
     18 H2         -0.5459    1.8868   -0.8726 H         1 <0>         0.0805
     19 H3         -0.5289    1.8773    0.9072 H         1 <0>         0.0807
     20 H4          0.5123   -0.3556   -0.8948 H         1 <0>         0.1326
     21 H5          0.5293   -0.3651    0.8851 H         1 <0>         0.1327
     22 H6         -1.8484   -0.1871    0.8426 H         1 <0>         0.4309
     23 H7         -0.8460   -2.3329   -0.8924 H         1 <0>         0.1461
     24 H8         -0.8290   -2.3425    0.8874 H         1 <0>         0.1453
     25 H9         -3.0096   -2.7848   -2.1651 H         1 <0>         0.2115
     26 H10        -4.0879   -2.6440    3.7909 H         1 <0>         0.1441
     27 H11        -5.5643   -3.0174    5.7222 H         1 <0>         0.1469
     28 H12        -8.6451   -4.4139    3.1195 H         1 <0>         0.1486
     29 H13        -7.1877   -4.0357    1.1748 H         1 <0>         0.1382
     30 H14        -1.8641   -0.1783   -0.8050 H         1 <0>         0.4261
@<TRIPOS>BOND
     1    1    2 1
     2    1   17 1
     3    1   18 1
     4    1   19 1
     5    2    3 1
     6    2   20 1
     7    2   21 1
     8    3    4 1
     9    3   22 1
    10    3   30 1
    11    4    5 1
    12    4   23 1
    13    4   24 1
    14    5    9 1
    15    5    6 2
    16    6    7 1
    17    6   25 1
    18    7    8 1
    19    8    9 2
    20    8   10 1
    21   10   15 ar
    22   10   11 ar
    23   11   12 ar
    24   11   26 1
    25   12   13 ar
    26   12   27 1
    27   13   14 ar
    28   13   16 1
    29   14   15 ar
    30   14   28 1
    31   15   29 1
@<TRIPOS>MOLECULE
ZINC22812775
   48    51     0     0     0
SMALL
USER_CHARGES
1-[(2-methylthiazol-4-yl)methyl]-4-[(2-phenylthiazol-4-yl)methyl]piperazine
@<TRIPOS>ATOM
      1 C1         -8.4983   -7.5040   -6.1790 C.3       1 <0>        -0.0818
      2 C2         -7.2144   -6.7150   -6.1916 C.2       1 <0>         0.1138
      3 N1         -6.0739   -6.9859   -5.6002 N.2       1 <0>        -0.5163
      4 C3         -5.0365   -6.1824   -5.7077 C.2       1 <0>        -0.0030
      5 C4         -5.1651   -5.0599   -6.4600 C.2       1 <0>        -0.1962
      6 S1         -6.8618   -5.2179   -6.9981 S.3       1 <0>         0.1203
      7 C5         -3.7361   -6.5042   -5.0174 C.3       1 <0>         0.0810
      8 N2         -3.7807   -6.0110   -3.6344 N.4       1 <0>        -0.3992
      9 C6         -2.6353   -6.5094   -2.8603 C.3       1 <0>         0.0024
     10 C7         -2.7607   -6.0399   -1.4090 C.3       1 <0>         0.0275
     11 N3         -2.8170   -4.5718   -1.3749 N.3       1 <0>        -0.5305
     12 C8         -3.9624   -4.0734   -2.1490 C.3       1 <0>         0.0224
     13 C9         -3.8370   -4.5429   -3.6003 C.3       1 <0>        -0.0010
     14 C10        -2.8616   -4.0786    0.0081 C.3       1 <0>         0.1261
     15 C11        -2.6714   -2.5837    0.0147 C.2       1 <0>         0.0650
     16 C12        -3.7528   -1.7598    0.0299 C.2       1 <0>        -0.2159
     17 S2         -2.9498   -0.1617    0.0384 S.3       1 <0>         0.0325
     18 C13        -1.2664   -0.7639    0.0105 C.2       1 <0>         0.1744
     19 N4         -1.4618   -2.0750    0.0054 N.2       1 <0>        -0.4884
     20 C14         0.0021   -0.0041    0.0020 C.ar      1 <0>        -0.0315
     21 C15        -0.0168    1.3913    0.0097 C.ar      1 <0>        -0.0888
     22 C16         1.1702    2.0943    0.0021 C.ar      1 <0>        -0.1167
     23 C17         2.3776    1.4189   -0.0135 C.ar      1 <0>        -0.0913
     24 C18         2.4032    0.0356   -0.0207 C.ar      1 <0>        -0.1210
     25 C19         1.2232   -0.6793   -0.0133 C.ar      1 <0>        -0.0661
     26 H1         -8.3679   -8.4066   -5.5639 H         1 <0>         0.1030
     27 H2         -8.7597   -7.7954   -7.2070 H         1 <0>         0.1018
     28 H3         -9.3044   -6.8859   -5.7569 H         1 <0>         0.1006
     29 H4         -4.4426   -4.2861   -6.6740 H         1 <0>         0.2060
     30 H5         -3.5828   -7.5935   -5.0135 H         1 <0>         0.1452
     31 H6         -2.9068   -6.0192   -5.5531 H         1 <0>         0.1412
     32 H7         -2.6224   -7.6089   -2.8912 H         1 <0>         0.1389
     33 H8         -1.7024   -6.1195   -3.2935 H         1 <0>         0.1374
     34 H9         -3.6797   -6.4534   -0.9680 H         1 <0>         0.0622
     35 H10        -1.8896   -6.3878   -0.8345 H         1 <0>         0.1274
     36 H11        -4.8953   -4.4633   -1.7158 H         1 <0>         0.0607
     37 H12        -3.9753   -2.9739   -2.1181 H         1 <0>         0.1215
     38 H13        -2.9179   -4.1304   -4.0420 H         1 <0>         0.1361
     39 H14        -4.7080   -4.1959   -4.1755 H         1 <0>         0.1298
     40 H15        -3.8360   -4.3262    0.4544 H         1 <0>         0.0644
     41 H16        -2.0595   -4.5529    0.5926 H         1 <0>         0.1062
     42 H17        -4.8050   -2.0029    0.0387 H         1 <0>         0.1960
     43 H18        -0.9587    1.9197    0.0170 H         1 <0>         0.1268
     44 H19         1.1570    3.1742    0.0077 H         1 <0>         0.1348
     45 H20         3.3041    1.9738   -0.0197 H         1 <0>         0.1324
     46 H21         3.3490   -0.4857   -0.0325 H         1 <0>         0.1337
     47 H22         1.2446   -1.7590   -0.0189 H         1 <0>         0.1350
     48 H23        -4.6994   -6.3971   -3.1686 H         1 <0>         0.4412
@<TRIPOS>BOND
     1    1    2 1
     2    1   26 1
     3    1   27 1
     4    1   28 1
     5    2    6 1
     6    2    3 2
     7    3    4 1
     8    4    5 2
     9    4    7 1
    10    5    6 1
    11    5   29 1
    12    7    8 1
    13    7   30 1
    14    7   31 1
    15    8   13 1
    16    8    9 1
    17    8   48 1
    18    9   10 1
    19    9   32 1
    20    9   33 1
    21   10   11 1
    22   10   34 1
    23   10   35 1
    24   11   12 1
    25   11   14 1
    26   12   13 1
    27   12   36 1
    28   12   37 1
    29   13   38 1
    30   13   39 1
    31   14   15 1
    32   14   40 1
    33   14   41 1
    34   15   19 1
    35   15   16 2
    36   16   17 1
    37   16   42 1
    38   17   18 1
    39   18   19 2
    40   18   20 1
    41   20   25 ar
    42   20   21 ar
    43   21   22 ar
    44   21   43 1
    45   22   23 ar
    46   22   44 1
    47   23   24 ar
    48   23   45 1
    49   24   25 ar
    50   24   46 1
    51   25   47 1
@<TRIPOS>MOLECULE
ZINC22812775
   48    51     0     0     0
SMALL
USER_CHARGES
1-[(2-methylthiazol-4-yl)methyl]-4-[(2-phenylthiazol-4-yl)methyl]piperazine
@<TRIPOS>ATOM
      1 C1         -8.4983   -7.5040   -6.1790 C.3       1 <0>        -0.0760
      2 C2         -7.2144   -6.7150   -6.1916 C.2       1 <0>         0.1066
      3 N1         -6.0739   -6.9859   -5.6002 N.2       1 <0>        -0.5007
      4 C3         -5.0365   -6.1824   -5.7077 C.2       1 <0>         0.0632
      5 C4         -5.1651   -5.0599   -6.4600 C.2       1 <0>        -0.2255
      6 S1         -6.8618   -5.2179   -6.9981 S.3       1 <0>         0.0596
      7 C5         -3.7361   -6.5042   -5.0174 C.3       1 <0>         0.1278
      8 N2         -3.7807   -6.0110   -3.6344 N.3       1 <0>        -0.5308
      9 C6         -2.6353   -6.5094   -2.8603 C.3       1 <0>         0.0271
     10 C7         -2.7607   -6.0399   -1.4090 C.3       1 <0>         0.0025
     11 N3         -2.8170   -4.5718   -1.3749 N.4       1 <0>        -0.3995
     12 C8         -3.9624   -4.0734   -2.1490 C.3       1 <0>        -0.0012
     13 C9         -3.8370   -4.5429   -3.6003 C.3       1 <0>         0.0226
     14 C10        -2.8616   -4.0786    0.0081 C.3       1 <0>         0.0789
     15 C11        -2.6714   -2.5837    0.0147 C.2       1 <0>         0.0015
     16 C12        -3.7528   -1.7598    0.0299 C.2       1 <0>        -0.1892
     17 S2         -2.9498   -0.1617    0.0384 S.3       1 <0>         0.0885
     18 C13        -1.2664   -0.7639    0.0105 C.2       1 <0>         0.1871
     19 N4         -1.4618   -2.0750    0.0054 N.2       1 <0>        -0.5092
     20 C14         0.0021   -0.0041    0.0020 C.ar      1 <0>        -0.0435
     21 C15        -0.0168    1.3913    0.0097 C.ar      1 <0>        -0.0842
     22 C16         1.1702    2.0943    0.0021 C.ar      1 <0>        -0.1149
     23 C17         2.3776    1.4189   -0.0135 C.ar      1 <0>        -0.0831
     24 C18         2.4032    0.0356   -0.0207 C.ar      1 <0>        -0.1205
     25 C19         1.2232   -0.6793   -0.0133 C.ar      1 <0>        -0.0635
     26 H1         -8.3679   -8.4066   -5.5639 H         1 <0>         0.0992
     27 H2         -8.7597   -7.7954   -7.2070 H         1 <0>         0.0958
     28 H3         -9.3044   -6.8859   -5.7569 H         1 <0>         0.0944
     29 H4         -4.4426   -4.2861   -6.6740 H         1 <0>         0.1934
     30 H5         -3.5828   -7.5935   -5.0135 H         1 <0>         0.1056
     31 H6         -2.9068   -6.0192   -5.5531 H         1 <0>         0.0640
     32 H7         -2.6224   -7.6089   -2.8912 H         1 <0>         0.1273
     33 H8         -1.7024   -6.1195   -3.2935 H         1 <0>         0.0622
     34 H9         -3.6797   -6.4534   -0.9680 H         1 <0>         0.1375
     35 H10        -1.8896   -6.3878   -0.8345 H         1 <0>         0.1391
     36 H11        -4.8953   -4.4633   -1.7158 H         1 <0>         0.1362
     37 H12        -3.9753   -2.9739   -2.1181 H         1 <0>         0.1300
     38 H13        -2.9179   -4.1304   -4.0420 H         1 <0>         0.0607
     39 H14        -4.7080   -4.1959   -4.1755 H         1 <0>         0.1215
     40 H15        -3.8360   -4.3262    0.4544 H         1 <0>         0.1416
     41 H16        -2.0595   -4.5529    0.5926 H         1 <0>         0.1457
     42 H17        -4.8050   -2.0029    0.0387 H         1 <0>         0.2083
     43 H18        -0.9587    1.9197    0.0170 H         1 <0>         0.1282
     44 H19         1.1570    3.1742    0.0077 H         1 <0>         0.1380
     45 H20         3.3041    1.9738   -0.0197 H         1 <0>         0.1357
     46 H21         3.3490   -0.4857   -0.0325 H         1 <0>         0.1363
     47 H22         1.2446   -1.7590   -0.0189 H         1 <0>         0.1343
     48 H23        -1.8983   -4.1857   -1.8407 H         1 <0>         0.4414
@<TRIPOS>BOND
     1    1    2 1
     2    1   26 1
     3    1   27 1
     4    1   28 1
     5    2    6 1
     6    2    3 2
     7    3    4 1
     8    4    5 2
     9    4    7 1
    10    5    6 1
    11    5   29 1
    12    7    8 1
    13    7   30 1
    14    7   31 1
    15    8   13 1
    16    8    9 1
    17    9   10 1
    18    9   32 1
    19    9   33 1
    20   10   11 1
    21   10   34 1
    22   10   35 1
    23   11   12 1
    24   11   14 1
    25   11   48 1
    26   12   13 1
    27   12   36 1
    28   12   37 1
    29   13   38 1
    30   13   39 1
    31   14   15 1
    32   14   40 1
    33   14   41 1
    34   15   19 1
    35   15   16 2
    36   16   17 1
    37   16   42 1
    38   17   18 1
    39   18   19 2
    40   18   20 1
    41   20   25 ar
    42   20   21 ar
    43   21   22 ar
    44   21   43 1
    45   22   23 ar
    46   22   44 1
    47   23   24 ar
    48   23   45 1
    49   24   25 ar
    50   24   46 1
    51   25   47 1
@<TRIPOS>MOLECULE
ZINC22812775
   47    50     0     0     0
SMALL
USER_CHARGES
1-[(2-methylthiazol-4-yl)methyl]-4-[(2-phenylthiazol-4-yl)methyl]piperazine
@<TRIPOS>ATOM
      1 C1         -8.4983   -7.5040   -6.1790 C.3       1 <0>        -0.0700
      2 C2         -7.2144   -6.7150   -6.1916 C.2       1 <0>         0.0971
      3 N1         -6.0739   -6.9859   -5.6002 N.2       1 <0>        -0.4945
      4 C3         -5.0365   -6.1824   -5.7077 C.2       1 <0>         0.0742
      5 C4         -5.1651   -5.0599   -6.4600 C.2       1 <0>        -0.2147
      6 S1         -6.8618   -5.2179   -6.9981 S.3       1 <0>         0.0314
      7 C5         -3.7361   -6.5042   -5.0174 C.3       1 <0>         0.1249
      8 N2         -3.7807   -6.0110   -3.6344 N.3       1 <0>        -0.5306
      9 C6         -2.6353   -6.5094   -2.8603 C.3       1 <0>         0.0587
     10 C7         -2.7607   -6.0399   -1.4090 C.3       1 <0>         0.0590
     11 N3         -2.8170   -4.5718   -1.3749 N.3       1 <0>        -0.5303
     12 C8         -3.9624   -4.0734   -2.1490 C.3       1 <0>         0.0556
     13 C9         -3.8370   -4.5429   -3.6003 C.3       1 <0>         0.0557
     14 C10        -2.8616   -4.0786    0.0081 C.3       1 <0>         0.1232
     15 C11        -2.6714   -2.5837    0.0147 C.2       1 <0>         0.0742
     16 C12        -3.7528   -1.7598    0.0299 C.2       1 <0>        -0.2018
     17 S2         -2.9498   -0.1617    0.0384 S.3       1 <0>         0.0089
     18 C13        -1.2664   -0.7639    0.0105 C.2       1 <0>         0.1592
     19 N4         -1.4618   -2.0750    0.0054 N.2       1 <0>        -0.4788
     20 C14         0.0021   -0.0041    0.0020 C.ar      1 <0>        -0.0188
     21 C15        -0.0168    1.3913    0.0097 C.ar      1 <0>        -0.0922
     22 C16         1.1702    2.0943    0.0021 C.ar      1 <0>        -0.1185
     23 C17         2.3776    1.4189   -0.0135 C.ar      1 <0>        -0.0993
     24 C18         2.4032    0.0356   -0.0207 C.ar      1 <0>        -0.1208
     25 C19         1.2232   -0.6793   -0.0133 C.ar      1 <0>        -0.0685
     26 H1         -8.3679   -8.4066   -5.5639 H         1 <0>         0.0965
     27 H2         -8.7597   -7.7954   -7.2070 H         1 <0>         0.0907
     28 H3         -9.3044   -6.8859   -5.7569 H         1 <0>         0.0906
     29 H4         -4.4426   -4.2861   -6.6740 H         1 <0>         0.1931
     30 H5         -3.5828   -7.5935   -5.0135 H         1 <0>         0.0931
     31 H6         -2.9068   -6.0192   -5.5531 H         1 <0>         0.0529
     32 H7         -2.6224   -7.6089   -2.8912 H         1 <0>         0.0842
     33 H8         -1.7024   -6.1195   -3.2935 H         1 <0>         0.0452
     34 H9         -3.6797   -6.4534   -0.9680 H         1 <0>         0.0453
     35 H10        -1.8896   -6.3878   -0.8345 H         1 <0>         0.0844
     36 H11        -4.8953   -4.4633   -1.7158 H         1 <0>         0.0427
     37 H12        -3.9753   -2.9739   -2.1181 H         1 <0>         0.0786
     38 H13        -2.9179   -4.1304   -4.0420 H         1 <0>         0.0427
     39 H14        -4.7080   -4.1959   -4.1755 H         1 <0>         0.0787
     40 H15        -3.8360   -4.3262    0.4544 H         1 <0>         0.0535
     41 H16        -2.0595   -4.5529    0.5926 H         1 <0>         0.0939
     42 H17        -4.8050   -2.0029    0.0387 H         1 <0>         0.1963
     43 H18        -0.9587    1.9197    0.0170 H         1 <0>         0.1263
     44 H19         1.1570    3.1742    0.0077 H         1 <0>         0.1315
     45 H20         3.3041    1.9738   -0.0197 H         1 <0>         0.1289
     46 H21         3.3490   -0.4857   -0.0325 H         1 <0>         0.1315
     47 H22         1.2446   -1.7590   -0.0189 H         1 <0>         0.1362
@<TRIPOS>BOND
     1    1    2 1
     2    1   26 1
     3    1   27 1
     4    1   28 1
     5    2    6 1
     6    2    3 2
     7    3    4 1
     8    4    5 2
     9    4    7 1
    10    5    6 1
    11    5   29 1
    12    7    8 1
    13    7   30 1
    14    7   31 1
    15    8   13 1
    16    8    9 1
    17    9   10 1
    18    9   32 1
    19    9   33 1
    20   10   11 1
    21   10   34 1
    22   10   35 1
    23   11   12 1
    24   11   14 1
    25   12   13 1
    26   12   36 1
    27   12   37 1
    28   13   38 1
    29   13   39 1
    30   14   15 1
    31   14   40 1
    32   14   41 1
    33   15   19 1
    34   15   16 2
    35   16   17 1
    36   16   42 1
    37   17   18 1
    38   18   19 2
    39   18   20 1
    40   20   25 ar
    41   20   21 ar
    42   21   22 ar
    43   21   43 1
    44   22   23 ar
    45   22   44 1
    46   23   24 ar
    47   23   45 1
    48   24   25 ar
    49   24   46 1
    50   25   47 1
@<TRIPOS>MOLECULE
ZINC22780988
   39    41     0     0     0
SMALL
USER_CHARGES
1-methyl-4-[(2-phenylthiazol-4-yl)methyl]piperazine
@<TRIPOS>ATOM
      1 C1         -0.0625    1.0307    2.4286 C.3       1 <0>        -0.0451
      2 N1         -0.7014    1.5602    1.2164 N.4       1 <0>        -0.4025
      3 C2         -0.0127    1.0858    0.0080 C.3       1 <0>         0.0012
      4 C3         -0.7538    1.5933   -1.2312 C.3       1 <0>         0.0239
      5 N2         -0.8062    3.0616   -1.2005 N.3       1 <0>        -0.5346
      6 C4         -1.4953    3.5359    0.0077 C.3       1 <0>         0.0287
      7 C5         -0.7542    3.0285    1.2469 C.3       1 <0>        -0.0003
      8 C6         -1.4446    3.5911   -2.4129 C.3       1 <0>         0.1285
      9 C7         -1.7028    5.0659   -2.2415 C.2       1 <0>         0.0390
     10 C8         -0.8053    5.9733   -2.7100 C.2       1 <0>        -0.1769
     11 S1         -1.6070    7.5020   -2.2420 S.3       1 <0>         0.0399
     12 C9         -3.0458    6.7675   -1.4757 C.2       1 <0>         0.1647
     13 N3         -2.7969    5.4765   -1.6445 N.2       1 <0>        -0.5064
     14 C10        -4.2043    7.4237   -0.8324 C.ar      1 <0>        -0.0296
     15 C11        -5.2360    6.6535   -0.2941 C.ar      1 <0>        -0.0705
     16 C12        -6.3116    7.2717    0.3095 C.ar      1 <0>        -0.1212
     17 C13        -6.3742    8.6524    0.3716 C.ar      1 <0>        -0.0916
     18 C14        -5.3572    9.4219   -0.1648 C.ar      1 <0>        -0.1145
     19 C15        -4.2734    8.8159   -0.7660 C.ar      1 <0>        -0.0884
     20 H1         -0.0364   -0.0679    2.3793 H         1 <0>         0.1248
     21 H2         -0.6368    1.3445    3.3127 H         1 <0>         0.1242
     22 H3          0.9641    1.4190    2.5014 H         1 <0>         0.1195
     23 H4          1.0192    1.4667    0.0007 H         1 <0>         0.1345
     24 H5          0.0024   -0.0141    0.0024 H         1 <0>         0.1370
     25 H6         -0.2232    1.2633   -2.1365 H         1 <0>         0.1250
     26 H7         -1.7768    1.1890   -1.2379 H         1 <0>         0.0629
     27 H8         -1.5106    4.6358    0.0132 H         1 <0>         0.1204
     28 H9         -2.5272    3.1549    0.0148 H         1 <0>         0.0661
     29 H10        -1.2845    3.3576    2.1527 H         1 <0>         0.1344
     30 H11         0.2690    3.4322    1.2541 H         1 <0>         0.1326
     31 H12        -0.7809    3.4329   -3.2757 H         1 <0>         0.1062
     32 H13        -2.3979    3.0693   -2.5831 H         1 <0>         0.0646
     33 H14         0.1321    5.8149   -3.2223 H         1 <0>         0.2022
     34 H15        -5.1904    5.5757   -0.3460 H         1 <0>         0.1313
     35 H16        -7.1086    6.6767    0.7304 H         1 <0>         0.1328
     36 H17        -7.2206    9.1317    0.8412 H         1 <0>         0.1328
     37 H18        -5.4120   10.4993   -0.1131 H         1 <0>         0.1356
     38 H19        -3.4799    9.4176   -1.1841 H         1 <0>         0.1280
     39 H20        -1.7346    1.1838    1.1886 H         1 <0>         0.4408
@<TRIPOS>BOND
     1    1    2 1
     2    1   20 1
     3    1   21 1
     4    1   22 1
     5    2    7 1
     6    2    3 1
     7    2   39 1
     8    3    4 1
     9    3   23 1
    10    3   24 1
    11    4    5 1
    12    4   25 1
    13    4   26 1
    14    5    6 1
    15    5    8 1
    16    6    7 1
    17    6   27 1
    18    6   28 1
    19    7   29 1
    20    7   30 1
    21    8    9 1
    22    8   31 1
    23    8   32 1
    24    9   13 1
    25    9   10 2
    26   10   11 1
    27   10   33 1
    28   11   12 1
    29   12   13 2
    30   12   14 1
    31   14   19 ar
    32   14   15 ar
    33   15   16 ar
    34   15   34 1
    35   16   17 ar
    36   16   35 1
    37   17   18 ar
    38   17   36 1
    39   18   19 ar
    40   18   37 1
    41   19   38 1
@<TRIPOS>MOLECULE
ZINC22780988
   39    41     0     0     0
SMALL
USER_CHARGES
1-methyl-4-[(2-phenylthiazol-4-yl)methyl]piperazine
@<TRIPOS>ATOM
      1 C1         -0.0625    1.0307    2.4286 C.3       1 <0>         0.0175
      2 N1         -0.7014    1.5602    1.2164 N.3       1 <0>        -0.5430
      3 C2         -0.0127    1.0858    0.0080 C.3       1 <0>         0.0243
      4 C3         -0.7538    1.5933   -1.2312 C.3       1 <0>         0.0013
      5 N2         -0.8062    3.0616   -1.2005 N.4       1 <0>        -0.3977
      6 C4         -1.4953    3.5359    0.0077 C.3       1 <0>         0.0078
      7 C5         -0.7542    3.0285    1.2469 C.3       1 <0>         0.0258
      8 C6         -1.4446    3.5911   -2.4129 C.3       1 <0>         0.0774
      9 C7         -1.7028    5.0659   -2.2415 C.2       1 <0>         0.0009
     10 C8         -0.8053    5.9733   -2.7100 C.2       1 <0>        -0.1863
     11 S1         -1.6070    7.5020   -2.2420 S.3       1 <0>         0.0858
     12 C9         -3.0458    6.7675   -1.4757 C.2       1 <0>         0.1860
     13 N3         -2.7969    5.4765   -1.6445 N.2       1 <0>        -0.5079
     14 C10        -4.2043    7.4237   -0.8324 C.ar      1 <0>        -0.0437
     15 C11        -5.2360    6.6535   -0.2941 C.ar      1 <0>        -0.0634
     16 C12        -6.3116    7.2717    0.3095 C.ar      1 <0>        -0.1203
     17 C13        -6.3742    8.6524    0.3716 C.ar      1 <0>        -0.0829
     18 C14        -5.3572    9.4219   -0.1648 C.ar      1 <0>        -0.1149
     19 C15        -4.2734    8.8159   -0.7660 C.ar      1 <0>        -0.0842
     20 H1         -0.0364   -0.0679    2.3793 H         1 <0>         0.0845
     21 H2         -0.6368    1.3445    3.3127 H         1 <0>         0.0843
     22 H3          0.9641    1.4190    2.5014 H         1 <0>         0.0391
     23 H4          1.0192    1.4667    0.0007 H         1 <0>         0.0602
     24 H5          0.0024   -0.0141    0.0024 H         1 <0>         0.1247
     25 H6         -0.2232    1.2633   -2.1365 H         1 <0>         0.1380
     26 H7         -1.7768    1.1890   -1.2379 H         1 <0>         0.1368
     27 H8         -1.5106    4.6358    0.0132 H         1 <0>         0.1286
     28 H9         -2.5272    3.1549    0.0148 H         1 <0>         0.1380
     29 H10        -1.2845    3.3576    2.1527 H         1 <0>         0.1216
     30 H11         0.2690    3.4322    1.2541 H         1 <0>         0.0578
     31 H12        -0.7809    3.4329   -3.2757 H         1 <0>         0.1460
     32 H13        -2.3979    3.0693   -2.5831 H         1 <0>         0.1417
     33 H14         0.1321    5.8149   -3.2223 H         1 <0>         0.2091
     34 H15        -5.1904    5.5757   -0.3460 H         1 <0>         0.1342
     35 H16        -7.1086    6.6767    0.7304 H         1 <0>         0.1363
     36 H17        -7.2206    9.1317    0.8412 H         1 <0>         0.1356
     37 H18        -5.4120   10.4993   -0.1131 H         1 <0>         0.1379
     38 H19        -3.4799    9.4176   -1.1841 H         1 <0>         0.1282
     39 H20         0.2270    3.4380   -1.1722 H         1 <0>         0.4351
@<TRIPOS>BOND
     1    1    2 1
     2    1   20 1
     3    1   21 1
     4    1   22 1
     5    2    7 1
     6    2    3 1
     7    3    4 1
     8    3   23 1
     9    3   24 1
    10    4    5 1
    11    4   25 1
    12    4   26 1
    13    5    6 1
    14    5    8 1
    15    5   39 1
    16    6    7 1
    17    6   27 1
    18    6   28 1
    19    7   29 1
    20    7   30 1
    21    8    9 1
    22    8   31 1
    23    8   32 1
    24    9   13 1
    25    9   10 2
    26   10   11 1
    27   10   33 1
    28   11   12 1
    29   12   13 2
    30   12   14 1
    31   14   19 ar
    32   14   15 ar
    33   15   16 ar
    34   15   34 1
    35   16   17 ar
    36   16   35 1
    37   17   18 ar
    38   17   36 1
    39   18   19 ar
    40   18   37 1
    41   19   38 1
@<TRIPOS>MOLECULE
ZINC22780988
   38    40     0     0     0
SMALL
USER_CHARGES
1-methyl-4-[(2-phenylthiazol-4-yl)methyl]piperazine
@<TRIPOS>ATOM
      1 C1         -0.0625    1.0307    2.4286 C.3       1 <0>         0.0228
      2 N1         -0.7014    1.5602    1.2164 N.3       1 <0>        -0.5451
      3 C2         -0.0127    1.0858    0.0080 C.3       1 <0>         0.0557
      4 C3         -0.7538    1.5933   -1.2312 C.3       1 <0>         0.0556
      5 N2         -0.8062    3.0616   -1.2005 N.3       1 <0>        -0.5345
      6 C4         -1.4953    3.5359    0.0077 C.3       1 <0>         0.0640
      7 C5         -0.7542    3.0285    1.2469 C.3       1 <0>         0.0551
      8 C6         -1.4446    3.5911   -2.4129 C.3       1 <0>         0.1236
      9 C7         -1.7028    5.0659   -2.2415 C.2       1 <0>         0.0578
     10 C8         -0.8053    5.9733   -2.7100 C.2       1 <0>        -0.1781
     11 S1         -1.6070    7.5020   -2.2420 S.3       1 <0>         0.0101
     12 C9         -3.0458    6.7675   -1.4757 C.2       1 <0>         0.1569
     13 N3         -2.7969    5.4765   -1.6445 N.2       1 <0>        -0.4912
     14 C10        -4.2043    7.4237   -0.8324 C.ar      1 <0>        -0.0188
     15 C11        -5.2360    6.6535   -0.2941 C.ar      1 <0>        -0.0697
     16 C12        -6.3116    7.2717    0.3095 C.ar      1 <0>        -0.1204
     17 C13        -6.3742    8.6524    0.3716 C.ar      1 <0>        -0.0990
     18 C14        -5.3572    9.4219   -0.1648 C.ar      1 <0>        -0.1179
     19 C15        -4.2734    8.8159   -0.7660 C.ar      1 <0>        -0.0918
     20 H1         -0.0364   -0.0679    2.3793 H         1 <0>         0.0699
     21 H2         -0.6368    1.3445    3.3127 H         1 <0>         0.0695
     22 H3          0.9641    1.4190    2.5014 H         1 <0>         0.0265
     23 H4          1.0192    1.4667    0.0007 H         1 <0>         0.0428
     24 H5          0.0024   -0.0141    0.0024 H         1 <0>         0.0818
     25 H6         -0.2232    1.2633   -2.1365 H         1 <0>         0.0826
     26 H7         -1.7768    1.1890   -1.2379 H         1 <0>         0.0458
     27 H8         -1.5106    4.6358    0.0132 H         1 <0>         0.0779
     28 H9         -2.5272    3.1549    0.0148 H         1 <0>         0.0475
     29 H10        -1.2845    3.3576    2.1527 H         1 <0>         0.0787
     30 H11         0.2690    3.4322    1.2541 H         1 <0>         0.0403
     31 H12        -0.7809    3.4329   -3.2757 H         1 <0>         0.0936
     32 H13        -2.3979    3.0693   -2.5831 H         1 <0>         0.0542
     33 H14         0.1321    5.8149   -3.2223 H         1 <0>         0.2005
     34 H15        -5.1904    5.5757   -0.3460 H         1 <0>         0.1347
     35 H16        -7.1086    6.6767    0.7304 H         1 <0>         0.1314
     36 H17        -7.2206    9.1317    0.8412 H         1 <0>         0.1291
     37 H18        -5.4120   10.4993   -0.1131 H         1 <0>         0.1318
     38 H19        -3.4799    9.4176   -1.1841 H         1 <0>         0.1266
@<TRIPOS>BOND
     1    1    2 1
     2    1   20 1
     3    1   21 1
     4    1   22 1
     5    2    7 1
     6    2    3 1
     7    3    4 1
     8    3   23 1
     9    3   24 1
    10    4    5 1
    11    4   25 1
    12    4   26 1
    13    5    6 1
    14    5    8 1
    15    6    7 1
    16    6   27 1
    17    6   28 1
    18    7   29 1
    19    7   30 1
    20    8    9 1
    21    8   31 1
    22    8   32 1
    23    9   13 1
    24    9   10 2
    25   10   11 1
    26   10   33 1
    27   11   12 1
    28   12   13 2
    29   12   14 1
    30   14   19 ar
    31   14   15 ar
    32   15   16 ar
    33   15   34 1
    34   16   17 ar
    35   16   35 1
    36   17   18 ar
    37   17   36 1
    38   18   19 ar
    39   18   37 1
    40   19   38 1
@<TRIPOS>MOLECULE
ZINC19944337
   36    38     0     0     0
SMALL
USER_CHARGES
1-[(2-phenylthiazol-4-yl)methyl]piperazine
@<TRIPOS>ATOM
      1 C1          6.5911    4.7798    5.4617 C.ar      1 <0>        -0.0908
      2 C2          7.2278    5.1144    4.2798 C.ar      1 <0>        -0.1165
      3 C3          6.5610    5.0002    3.0774 C.ar      1 <0>        -0.0885
      4 C4          5.2418    4.5457    3.0550 C.ar      1 <0>        -0.0323
      5 C5          4.6039    4.2145    4.2511 C.ar      1 <0>        -0.0662
      6 C6          5.2835    4.3281    5.4463 C.ar      1 <0>        -0.1210
      7 C7          4.5211    4.4214    1.7698 C.2       1 <0>         0.1751
      8 N1          3.2795    4.0196    1.5370 N.2       1 <0>        -0.4899
      9 C8          2.7980    3.9660    0.3175 C.2       1 <0>         0.0641
     10 C9          3.5748    4.3380   -0.7345 C.2       1 <0>        -0.2163
     11 S1          5.0871    4.7796    0.1120 S.3       1 <0>         0.0344
     12 C10         1.3844    3.4988    0.0839 C.3       1 <0>         0.1262
     13 N2          1.3610    2.0324   -0.0000 N.3       1 <0>        -0.5323
     14 C11        -0.0187    1.5263    0.0104 C.3       1 <0>         0.0237
     15 C12         0.0021   -0.0041    0.0020 C.3       1 <0>         0.0033
     16 N3          0.7238   -0.4751   -1.1883 N.4       1 <0>        -0.5373
     17 C13         2.1034    0.0310   -1.1988 C.3       1 <0>         0.0018
     18 C14         2.0826    1.5614   -1.1904 C.3       1 <0>         0.0163
     19 H1          7.1173    4.8713    6.4004 H         1 <0>         0.1327
     20 H2          8.2487    5.4660    4.2986 H         1 <0>         0.1351
     21 H3          7.0591    5.2617    2.1555 H         1 <0>         0.1270
     22 H4          3.5816    3.8663    4.2408 H         1 <0>         0.1347
     23 H5          4.7923    4.0682    6.3723 H         1 <0>         0.1338
     24 H6          3.3431    4.3602   -1.7891 H         1 <0>         0.1962
     25 H7          0.7468    3.8287    0.9173 H         1 <0>         0.1053
     26 H8          1.0078    3.9260   -0.8572 H         1 <0>         0.0642
     27 H9         -0.5329    1.8820    0.9154 H         1 <0>         0.1240
     28 H10        -0.5500    1.8917   -0.8808 H         1 <0>         0.0613
     29 H11         0.5090   -0.3689    0.9075 H         1 <0>         0.1361
     30 H12        -1.0297   -0.3847   -0.0191 H         1 <0>         0.1384
     31 H13         0.7503   -1.5748   -1.1897 H         1 <0>         0.4568
     32 H14         2.6348   -0.3344   -0.3076 H         1 <0>         0.1347
     33 H15         2.6176   -0.3247   -2.1038 H         1 <0>         0.1374
     34 H16         1.5752    1.9271   -2.0953 H         1 <0>         0.0616
     35 H17         3.1141    1.9430   -1.1688 H         1 <0>         0.1200
     36 H18         0.2096   -0.1196   -2.0934 H         1 <0>         0.4470
@<TRIPOS>BOND
     1    1    6 ar
     2    1    2 ar
     3    1   19 1
     4    2    3 ar
     5    2   20 1
     6    3    4 ar
     7    3   21 1
     8    4    5 ar
     9    4    7 1
    10    5    6 ar
    11    5   22 1
    12    6   23 1
    13    7   11 1
    14    7    8 2
    15    8    9 1
    16    9   10 2
    17    9   12 1
    18   10   11 1
    19   10   24 1
    20   12   13 1
    21   12   25 1
    22   12   26 1
    23   13   18 1
    24   13   14 1
    25   14   15 1
    26   14   27 1
    27   14   28 1
    28   15   16 1
    29   15   29 1
    30   15   30 1
    31   16   17 1
    32   16   31 1
    33   16   36 1
    34   17   18 1
    35   17   32 1
    36   17   33 1
    37   18   34 1
    38   18   35 1
@<TRIPOS>MOLECULE
ZINC19595411
   42    44     0     0     0
SMALL
USER_CHARGES
1-ethyl-4-[(2-phenylthiazol-4-yl)methyl]piperazine
@<TRIPOS>ATOM
      1 C1         -0.6400    1.7343    3.6584 C.3       1 <0>        -0.1930
      2 C2         -0.0625    1.0307    2.4286 C.3       1 <0>        -0.0067
      3 N1         -0.7014    1.5602    1.2164 N.4       1 <0>        -0.4012
      4 C3         -0.0127    1.0858    0.0080 C.3       1 <0>         0.0025
      5 C4         -0.7538    1.5933   -1.2312 C.3       1 <0>         0.0246
      6 N2         -0.8062    3.0616   -1.2005 N.3       1 <0>        -0.5343
      7 C5         -1.4953    3.5359    0.0077 C.3       1 <0>         0.0301
      8 C6         -0.7542    3.0285    1.2469 C.3       1 <0>        -0.0065
      9 C7         -1.4446    3.5911   -2.4129 C.3       1 <0>         0.1284
     10 C8         -1.7028    5.0659   -2.2415 C.2       1 <0>         0.0393
     11 C9         -0.8053    5.9733   -2.7100 C.2       1 <0>        -0.1769
     12 S1         -1.6070    7.5020   -2.2420 S.3       1 <0>         0.0395
     13 C10        -3.0458    6.7675   -1.4757 C.2       1 <0>         0.1645
     14 N3         -2.7969    5.4765   -1.6445 N.2       1 <0>        -0.5061
     15 C11        -4.2043    7.4237   -0.8324 C.ar      1 <0>        -0.0294
     16 C12        -5.2360    6.6535   -0.2941 C.ar      1 <0>        -0.0705
     17 C13        -6.3116    7.2717    0.3095 C.ar      1 <0>        -0.1211
     18 C14        -6.3742    8.6524    0.3716 C.ar      1 <0>        -0.0917
     19 C15        -5.3572    9.4219   -0.1648 C.ar      1 <0>        -0.1145
     20 C16        -4.2734    8.8159   -0.7660 C.ar      1 <0>        -0.0885
     21 H1         -0.1616    1.3378    4.5661 H         1 <0>         0.1061
     22 H2         -1.7243    1.5557    3.7075 H         1 <0>         0.0806
     23 H3         -0.4493    2.8152    3.5857 H         1 <0>         0.0820
     24 H4          1.0218    1.2093    2.3795 H         1 <0>         0.1262
     25 H5         -0.2532   -0.0502    2.5013 H         1 <0>         0.1313
     26 H6          1.0192    1.4667    0.0007 H         1 <0>         0.1343
     27 H7          0.0024   -0.0141    0.0024 H         1 <0>         0.1367
     28 H8         -0.2232    1.2633   -2.1365 H         1 <0>         0.1250
     29 H9         -1.7768    1.1890   -1.2379 H         1 <0>         0.0627
     30 H10        -1.5106    4.6358    0.0132 H         1 <0>         0.1200
     31 H11        -2.5272    3.1549    0.0148 H         1 <0>         0.0655
     32 H12        -1.2845    3.3576    2.1527 H         1 <0>         0.1379
     33 H13         0.2690    3.4322    1.2541 H         1 <0>         0.1324
     34 H14        -0.7809    3.4329   -3.2757 H         1 <0>         0.1060
     35 H15        -2.3979    3.0693   -2.5831 H         1 <0>         0.0644
     36 H16         0.1321    5.8149   -3.2223 H         1 <0>         0.2022
     37 H17        -5.1904    5.5757   -0.3460 H         1 <0>         0.1313
     38 H18        -7.1086    6.6767    0.7304 H         1 <0>         0.1327
     39 H19        -7.2206    9.1317    0.8412 H         1 <0>         0.1327
     40 H20        -5.4120   10.4993   -0.1131 H         1 <0>         0.1356
     41 H21        -3.4799    9.4176   -1.1841 H         1 <0>         0.1279
     42 H22        -1.7346    1.1838    1.1886 H         1 <0>         0.4380
@<TRIPOS>BOND
     1    1    2 1
     2    1   21 1
     3    1   22 1
     4    1   23 1
     5    2    3 1
     6    2   24 1
     7    2   25 1
     8    3    8 1
     9    3    4 1
    10    3   42 1
    11    4    5 1
    12    4   26 1
    13    4   27 1
    14    5    6 1
    15    5   28 1
    16    5   29 1
    17    6    7 1
    18    6    9 1
    19    7    8 1
    20    7   30 1
    21    7   31 1
    22    8   32 1
    23    8   33 1
    24    9   10 1
    25    9   34 1
    26    9   35 1
    27   10   14 1
    28   10   11 2
    29   11   12 1
    30   11   36 1
    31   12   13 1
    32   13   14 2
    33   13   15 1
    34   15   20 ar
    35   15   16 ar
    36   16   17 ar
    37   16   37 1
    38   17   18 ar
    39   17   38 1
    40   18   19 ar
    41   18   39 1
    42   19   20 ar
    43   19   40 1
    44   20   41 1
@<TRIPOS>MOLECULE
ZINC19595411
   42    44     0     0     0
SMALL
USER_CHARGES
1-ethyl-4-[(2-phenylthiazol-4-yl)methyl]piperazine
@<TRIPOS>ATOM
      1 C1         -0.6400    1.7343    3.6584 C.3       1 <0>        -0.1657
      2 C2         -0.0625    1.0307    2.4286 C.3       1 <0>         0.0494
      3 N1         -0.7014    1.5602    1.2164 N.3       1 <0>        -0.5391
      4 C3         -0.0127    1.0858    0.0080 C.3       1 <0>         0.0254
      5 C4         -0.7538    1.5933   -1.2312 C.3       1 <0>         0.0019
      6 N2         -0.8062    3.0616   -1.2005 N.4       1 <0>        -0.3977
      7 C5         -1.4953    3.5359    0.0077 C.3       1 <0>         0.0080
      8 C6         -0.7542    3.0285    1.2469 C.3       1 <0>         0.0194
      9 C7         -1.4446    3.5911   -2.4129 C.3       1 <0>         0.0773
     10 C8         -1.7028    5.0659   -2.2415 C.2       1 <0>         0.0012
     11 C9         -0.8053    5.9733   -2.7100 C.2       1 <0>        -0.1864
     12 S1         -1.6070    7.5020   -2.2420 S.3       1 <0>         0.0855
     13 C10        -3.0458    6.7675   -1.4757 C.2       1 <0>         0.1859
     14 N3         -2.7969    5.4765   -1.6445 N.2       1 <0>        -0.5076
     15 C11        -4.2043    7.4237   -0.8324 C.ar      1 <0>        -0.0435
     16 C12        -5.2360    6.6535   -0.2941 C.ar      1 <0>        -0.0634
     17 C13        -6.3116    7.2717    0.3095 C.ar      1 <0>        -0.1203
     18 C14        -6.3742    8.6524    0.3716 C.ar      1 <0>        -0.0830
     19 C15        -5.3572    9.4219   -0.1648 C.ar      1 <0>        -0.1149
     20 C16        -4.2734    8.8159   -0.7660 C.ar      1 <0>        -0.0842
     21 H1         -0.1616    1.3378    4.5661 H         1 <0>         0.0741
     22 H2         -1.7243    1.5557    3.7075 H         1 <0>         0.0706
     23 H3         -0.4493    2.8152    3.5857 H         1 <0>         0.0581
     24 H4          1.0218    1.2093    2.3795 H         1 <0>         0.0457
     25 H5         -0.2532   -0.0502    2.5013 H         1 <0>         0.0919
     26 H6          1.0192    1.4667    0.0007 H         1 <0>         0.0600
     27 H7          0.0024   -0.0141    0.0024 H         1 <0>         0.1243
     28 H8         -0.2232    1.2633   -2.1365 H         1 <0>         0.1377
     29 H9         -1.7768    1.1890   -1.2379 H         1 <0>         0.1367
     30 H10        -1.5106    4.6358    0.0132 H         1 <0>         0.1280
     31 H11        -2.5272    3.1549    0.0148 H         1 <0>         0.1376
     32 H12        -1.2845    3.3576    2.1527 H         1 <0>         0.1274
     33 H13         0.2690    3.4322    1.2541 H         1 <0>         0.0569
     34 H14        -0.7809    3.4329   -3.2757 H         1 <0>         0.1457
     35 H15        -2.3979    3.0693   -2.5831 H         1 <0>         0.1415
     36 H16         0.1321    5.8149   -3.2223 H         1 <0>         0.2090
     37 H17        -5.1904    5.5757   -0.3460 H         1 <0>         0.1342
     38 H18        -7.1086    6.6767    0.7304 H         1 <0>         0.1363
     39 H19        -7.2206    9.1317    0.8412 H         1 <0>         0.1355
     40 H20        -5.4120   10.4993   -0.1131 H         1 <0>         0.1378
     41 H21        -3.4799    9.4176   -1.1841 H         1 <0>         0.1281
     42 H22         0.2270    3.4380   -1.1722 H         1 <0>         0.4349
@<TRIPOS>BOND
     1    1    2 1
     2    1   21 1
     3    1   22 1
     4    1   23 1
     5    2    3 1
     6    2   24 1
     7    2   25 1
     8    3    8 1
     9    3    4 1
    10    4    5 1
    11    4   26 1
    12    4   27 1
    13    5    6 1
    14    5   28 1
    15    5   29 1
    16    6    7 1
    17    6    9 1
    18    6   42 1
    19    7    8 1
    20    7   30 1
    21    7   31 1
    22    8   32 1
    23    8   33 1
    24    9   10 1
    25    9   34 1
    26    9   35 1
    27   10   14 1
    28   10   11 2
    29   11   12 1
    30   11   36 1
    31   12   13 1
    32   13   14 2
    33   13   15 1
    34   15   20 ar
    35   15   16 ar
    36   16   17 ar
    37   16   37 1
    38   17   18 ar
    39   17   38 1
    40   18   19 ar
    41   18   39 1
    42   19   20 ar
    43   19   40 1
    44   20   41 1
@<TRIPOS>MOLECULE
ZINC19595411
   41    43     0     0     0
SMALL
USER_CHARGES
1-ethyl-4-[(2-phenylthiazol-4-yl)methyl]piperazine
@<TRIPOS>ATOM
      1 C1         -0.6400    1.7343    3.6584 C.3       1 <0>        -0.1589
      2 C2         -0.0625    1.0307    2.4286 C.3       1 <0>         0.0499
      3 N1         -0.7014    1.5602    1.2164 N.3       1 <0>        -0.5401
      4 C3         -0.0127    1.0858    0.0080 C.3       1 <0>         0.0567
      5 C4         -0.7538    1.5933   -1.2312 C.3       1 <0>         0.0563
      6 N2         -0.8062    3.0616   -1.2005 N.3       1 <0>        -0.5343
      7 C5         -1.4953    3.5359    0.0077 C.3       1 <0>         0.0641
      8 C6         -0.7542    3.0285    1.2469 C.3       1 <0>         0.0506
      9 C7         -1.4446    3.5911   -2.4129 C.3       1 <0>         0.1235
     10 C8         -1.7028    5.0659   -2.2415 C.2       1 <0>         0.0582
     11 C9         -0.8053    5.9733   -2.7100 C.2       1 <0>        -0.1782
     12 S1         -1.6070    7.5020   -2.2420 S.3       1 <0>         0.0098
     13 C10        -3.0458    6.7675   -1.4757 C.2       1 <0>         0.1568
     14 N3         -2.7969    5.4765   -1.6445 N.2       1 <0>        -0.4910
     15 C11        -4.2043    7.4237   -0.8324 C.ar      1 <0>        -0.0187
     16 C12        -5.2360    6.6535   -0.2941 C.ar      1 <0>        -0.0697
     17 C13        -6.3116    7.2717    0.3095 C.ar      1 <0>        -0.1204
     18 C14        -6.3742    8.6524    0.3716 C.ar      1 <0>        -0.0991
     19 C15        -5.3572    9.4219   -0.1648 C.ar      1 <0>        -0.1179
     20 C16        -4.2734    8.8159   -0.7660 C.ar      1 <0>        -0.0919
     21 H1         -0.1616    1.3378    4.5661 H         1 <0>         0.0617
     22 H2         -1.7243    1.5557    3.7075 H         1 <0>         0.0644
     23 H3         -0.4493    2.8152    3.5857 H         1 <0>         0.0577
     24 H4          1.0218    1.2093    2.3795 H         1 <0>         0.0334
     25 H5         -0.2532   -0.0502    2.5013 H         1 <0>         0.0767
     26 H6          1.0192    1.4667    0.0007 H         1 <0>         0.0426
     27 H7          0.0024   -0.0141    0.0024 H         1 <0>         0.0813
     28 H8         -0.2232    1.2633   -2.1365 H         1 <0>         0.0821
     29 H9         -1.7768    1.1890   -1.2379 H         1 <0>         0.0455
     30 H10        -1.5106    4.6358    0.0132 H         1 <0>         0.0771
     31 H11        -2.5272    3.1549    0.0148 H         1 <0>         0.0469
     32 H12        -1.2845    3.3576    2.1527 H         1 <0>         0.0850
     33 H13         0.2690    3.4322    1.2541 H         1 <0>         0.0387
     34 H14        -0.7809    3.4329   -3.2757 H         1 <0>         0.0932
     35 H15        -2.3979    3.0693   -2.5831 H         1 <0>         0.0539
     36 H16         0.1321    5.8149   -3.2223 H         1 <0>         0.2003
     37 H17        -5.1904    5.5757   -0.3460 H         1 <0>         0.1347
     38 H18        -7.1086    6.6767    0.7304 H         1 <0>         0.1314
     39 H19        -7.2206    9.1317    0.8412 H         1 <0>         0.1290
     40 H20        -5.4120   10.4993   -0.1131 H         1 <0>         0.1317
     41 H21        -3.4799    9.4176   -1.1841 H         1 <0>         0.1266
@<TRIPOS>BOND
     1    1    2 1
     2    1   21 1
     3    1   22 1
     4    1   23 1
     5    2    3 1
     6    2   24 1
     7    2   25 1
     8    3    8 1
     9    3    4 1
    10    4    5 1
    11    4   26 1
    12    4   27 1
    13    5    6 1
    14    5   28 1
    15    5   29 1
    16    6    7 1
    17    6    9 1
    18    7    8 1
    19    7   30 1
    20    7   31 1
    21    8   32 1
    22    8   33 1
    23    9   10 1
    24    9   34 1
    25    9   35 1
    26   10   14 1
    27   10   11 2
    28   11   12 1
    29   11   36 1
    30   12   13 1
    31   13   14 2
    32   13   15 1
    33   15   20 ar
    34   15   16 ar
    35   16   17 ar
    36   16   37 1
    37   17   18 ar
    38   17   38 1
    39   18   19 ar
    40   18   39 1
    41   19   20 ar
    42   19   40 1
    43   20   41 1
@<TRIPOS>MOLECULE
ZINC12546573
   40    43     0     0     0
SMALL
USER_CHARGES
1-[(2-phenylthiazol-4-yl)methyl]-4-aza-1-azoniabicyclo[2.2.2]octane
@<TRIPOS>ATOM
      1 C1         -0.6015    6.9390    4.8106 C.ar      1 <0>        -0.0822
      2 C2         -1.4916    6.0004    5.3014 C.ar      1 <0>        -0.1145
      3 C3         -1.6446    4.7887    4.6597 C.ar      1 <0>        -0.0837
      4 C4         -0.8994    4.5110    3.5130 C.ar      1 <0>        -0.0441
      5 C5          0.0006    5.4599    3.0262 C.ar      1 <0>        -0.0636
      6 C6          0.1403    6.6699    3.6742 C.ar      1 <0>        -0.1201
      7 C7         -1.0583    3.2143    2.8202 C.2       1 <0>         0.1866
      8 N1         -0.4483    2.7603    1.7343 N.2       1 <0>        -0.5088
      9 C8         -0.7181    1.5718    1.2479 C.2       1 <0>         0.0047
     10 C9         -1.6310    0.7774    1.8676 C.2       1 <0>        -0.1899
     11 S1         -2.1201    1.8340    3.2252 S.3       1 <0>         0.0912
     12 C10        -0.0127    1.0858    0.0080 C.3       1 <0>         0.0801
     13 N2         -0.7232    1.5724   -1.1821 N.4       1 <0>        -0.2575
     14 C11        -2.1013    1.0653   -1.1675 C.3       1 <0>        -0.0463
     15 C12        -2.8466    1.5763   -2.4034 C.3       1 <0>         0.0301
     16 N3         -1.9287    2.4088   -3.2007 N.3       1 <0>        -0.5060
     17 C13        -0.7694    1.6080   -3.6307 C.3       1 <0>         0.0290
     18 C14        -0.0338    1.0974   -2.3886 C.3       1 <0>        -0.0409
     19 C15        -1.4751    3.5600   -2.4005 C.3       1 <0>         0.0281
     20 C16        -0.7444    3.0408   -1.1698 C.3       1 <0>        -0.0368
     21 H1         -0.4855    7.8861    5.3166 H         1 <0>         0.1360
     22 H2         -2.0677    6.2166    6.1890 H         1 <0>         0.1383
     23 H3         -2.3397    4.0568    5.0438 H         1 <0>         0.1283
     24 H4          0.5835    5.2492    2.1417 H         1 <0>         0.1337
     25 H5          0.8332    7.4069    3.2959 H         1 <0>         0.1366
     26 H6         -1.9677   -0.2162    1.6110 H         1 <0>         0.2083
     27 H7          0.0021   -0.0041    0.0020 H         1 <0>         0.1416
     28 H8          1.0099    1.4631    0.0003 H         1 <0>         0.1417
     29 H9         -2.0875   -0.0246   -1.1764 H         1 <0>         0.1324
     30 H10        -2.6076    1.4148   -0.2676 H         1 <0>         0.1272
     31 H11        -3.7040    2.1730   -2.0922 H         1 <0>         0.1130
     32 H12        -3.1854    0.7304   -3.0015 H         1 <0>         0.1166
     33 H13        -0.0974    2.2277   -4.2243 H         1 <0>         0.1160
     34 H14        -1.1089    0.7616   -4.2278 H         1 <0>         0.1164
     35 H15         0.9900    1.4716   -2.3933 H         1 <0>         0.1335
     36 H16        -0.0224    0.0075   -2.3954 H         1 <0>         0.1333
     37 H17        -0.8026    4.1770   -2.9965 H         1 <0>         0.1160
     38 H18        -2.3366    4.1508   -2.0893 H         1 <0>         0.1118
     39 H19        -1.2512    3.3893   -0.2699 H         1 <0>         0.1324
     40 H20         0.2779    3.4190   -1.1806 H         1 <0>         0.1317
@<TRIPOS>BOND
     1    1    6 ar
     2    1    2 ar
     3    1   21 1
     4    2    3 ar
     5    2   22 1
     6    3    4 ar
     7    3   23 1
     8    4    5 ar
     9    4    7 1
    10    5    6 ar
    11    5   24 1
    12    6   25 1
    13    7   11 1
    14    7    8 2
    15    8    9 1
    16    9   10 2
    17    9   12 1
    18   10   11 1
    19   10   26 1
    20   12   13 1
    21   12   27 1
    22   12   28 1
    23   13   18 1
    24   13   20 1
    25   13   14 1
    26   14   15 1
    27   14   29 1
    28   14   30 1
    29   15   16 1
    30   15   31 1
    31   15   32 1
    32   16   17 1
    33   16   19 1
    34   17   18 1
    35   17   33 1
    36   17   34 1
    37   18   35 1
    38   18   36 1
    39   19   20 1
    40   19   37 1
    41   19   38 1
    42   20   39 1
    43   20   40 1
@<TRIPOS>MOLECULE
ZINC80813447
   36    37     0     0     0
SMALL
USER_CHARGES

@<TRIPOS>ATOM
      1 C1         -0.4866    1.4580   -0.0066 C.3       1 <0>        -0.1268
      2 C2         -0.2215   -0.0255   -0.0061 C.ar      1 <0>        -0.0376
      3 C3         -0.0380   -0.6928   -1.2041 C.ar      1 <0>        -0.1304
      4 C4          0.2054   -2.0508   -1.2105 C.ar      1 <0>        -0.0257
      5 C5          0.2664   -2.7513   -0.0051 C.ar      1 <0>        -0.0581
      6 C6          0.0804   -2.0724    1.1998 C.ar      1 <0>        -0.0345
      7 C7         -0.1571   -0.7133    1.1927 C.ar      1 <0>        -0.1264
      8 C8          0.1441   -2.8210    2.5061 C.3       1 <0>        -0.1302
      9 C9          0.5265   -4.2070   -0.0046 C.2       1 <0>         0.1986
     10 N1         -0.0440   -5.1637   -0.7233 N.2       1 <0>        -0.5084
     11 C10         0.3144   -6.4194   -0.5929 C.2       1 <0>        -0.0127
     12 C11         1.2885   -6.7574    0.2933 C.2       1 <0>        -0.1794
     13 S1          1.7004   -5.1497    0.9598 S.3       1 <0>         0.0905
     14 C12        -0.3531   -7.4849   -1.4237 C.3       1 <0>         0.1173
     15 H1          0.0092   -8.4658   -1.1157 H         1 <0>         0.1528
     16 C13        -1.8681   -7.4144   -1.2221 C.3       1 <0>        -0.1772
     17 N2         -0.0372   -7.2694   -2.8420 N.4       1 <0>        -0.6345
     18 C14         0.4046   -2.7761   -2.5163 C.3       1 <0>        -0.1263
     19 H2          0.4600    1.9962    0.0426 H         1 <0>         0.0814
     20 H3         -1.0136    1.7326   -0.9203 H         1 <0>         0.0741
     21 H4         -1.0977    1.7182    0.8576 H         1 <0>         0.0747
     22 H5         -0.0858   -0.1495   -2.1362 H         1 <0>         0.1344
     23 H6         -0.2968   -0.1858    2.1247 H         1 <0>         0.1364
     24 H7          1.1696   -2.8210    2.8753 H         1 <0>         0.0822
     25 H8         -0.5045   -2.3354    3.2352 H         1 <0>         0.0835
     26 H9         -0.1869   -3.8482    2.3527 H         1 <0>         0.0632
     27 H10         1.7017   -7.7274    0.5271 H         1 <0>         0.2088
     28 H11        -2.1024   -7.5743   -0.1697 H         1 <0>         0.1034
     29 H12        -2.2303   -6.4336   -1.5300 H         1 <0>         0.0900
     30 H13        -2.3508   -8.1851   -1.8230 H         1 <0>         0.0858
     31 H14         0.9619   -7.3159   -2.9750 H         1 <0>         0.4345
     32 H15        -0.4841   -7.9828   -3.3983 H         1 <0>         0.4373
     33 H16         1.4708   -2.8569   -2.7282 H         1 <0>         0.0714
     34 H17        -0.0288   -3.7739   -2.4475 H         1 <0>         0.0758
     35 H18        -0.0841   -2.2222   -3.3178 H         1 <0>         0.0752
     36 H19        -0.3725   -6.3615   -3.1271 H         1 <0>         0.4370
@<TRIPOS>BOND
     1    1    2 1
     2    1   19 1
     3    1   20 1
     4    1   21 1
     5    2    7 ar
     6    2    3 ar
     7    3    4 ar
     8    3   22 1
     9    4    5 ar
    10    4   18 1
    11    5    6 ar
    12    5    9 1
    13    6    7 ar
    14    6    8 1
    15    7   23 1
    16    8   24 1
    17    8   25 1
    18    8   26 1
    19    9   13 1
    20    9   10 2
    21   10   11 1
    22   11   12 2
    23   11   14 1
    24   12   13 1
    25   12   27 1
    26   14   15 1
    27   14   16 1
    28   14   17 1
    29   16   28 1
    30   16   29 1
    31   16   30 1
    32   17   31 1
    33   17   32 1
    34   17   36 1
    35   18   33 1
    36   18   34 1
    37   18   35 1
@<TRIPOS>MOLECULE
ZINC80813451
   36    37     0     0     0
SMALL
USER_CHARGES

@<TRIPOS>ATOM
      1 C1         -0.4865    1.4580   -0.0066 C.3       1 <0>        -0.1267
      2 C2         -0.2215   -0.0255   -0.0061 C.ar      1 <0>        -0.0357
      3 C3         -0.0382   -0.6928   -1.2041 C.ar      1 <0>        -0.1310
      4 C4          0.2053   -2.0509   -1.2105 C.ar      1 <0>        -0.0185
      5 C5          0.2664   -2.7513   -0.0051 C.ar      1 <0>        -0.0636
      6 C6          0.0806   -2.0723    1.1998 C.ar      1 <0>        -0.0343
      7 C7         -0.1569   -0.7132    1.1927 C.ar      1 <0>        -0.1286
      8 C8          0.1444   -2.8209    2.5061 C.3       1 <0>        -0.1293
      9 C9          0.5264   -4.2070   -0.0046 C.2       1 <0>         0.2130
     10 N1         -0.0440   -5.1638   -0.7232 N.2       1 <0>        -0.4951
     11 C10         0.3143   -6.4194   -0.5928 C.2       1 <0>         0.0359
     12 C11         1.2884   -6.7574    0.2934 C.2       1 <0>        -0.2648
     13 S1          1.7004   -5.1497    0.9598 S.3       1 <0>         0.0970
     14 C12        -0.3531   -7.4849   -1.4236 C.3       1 <0>         0.1094
     15 H1         -0.1188   -7.3250   -2.4760 H         1 <0>         0.1570
     16 C13        -1.8682   -7.4144   -1.2220 C.3       1 <0>        -0.1747
     17 N2          0.1350   -8.8068   -1.0086 N.4       1 <0>        -0.6348
     18 C14         0.4042   -2.7762   -2.5163 C.3       1 <0>        -0.1307
     19 H2          0.4601    1.9962    0.0424 H         1 <0>         0.0814
     20 H3         -1.0137    1.7326   -0.9203 H         1 <0>         0.0746
     21 H4         -1.0976    1.7182    0.8577 H         1 <0>         0.0745
     22 H5         -0.0861   -0.1496   -2.1363 H         1 <0>         0.1356
     23 H6         -0.2965   -0.1857    2.1247 H         1 <0>         0.1364
     24 H7          1.1700   -2.8210    2.8752 H         1 <0>         0.0817
     25 H8         -0.5041   -2.3352    3.2353 H         1 <0>         0.0837
     26 H9         -0.1866   -3.8481    2.3528 H         1 <0>         0.0620
     27 H10         1.7016   -7.7274    0.5272 H         1 <0>         0.1963
     28 H11        -2.3509   -8.1851   -1.8229 H         1 <0>         0.0876
     29 H12        -2.1025   -7.5743   -0.1696 H         1 <0>         0.0802
     30 H13        -2.2304   -6.4336   -1.5300 H         1 <0>         0.1152
     31 H14        -0.0819   -8.9548   -0.0344 H         1 <0>         0.4349
     32 H15        -0.3118   -9.5203   -1.5648 H         1 <0>         0.4436
     33 H16         1.4704   -2.8570   -2.7283 H         1 <0>         0.0719
     34 H17        -0.0291   -3.7740   -2.4474 H         1 <0>         0.0838
     35 H18        -0.0846   -2.2223   -3.3178 H         1 <0>         0.0757
     36 H19         1.1342   -8.8533   -1.1415 H         1 <0>         0.4366
@<TRIPOS>BOND
     1    1    2 1
     2    1   19 1
     3    1   20 1
     4    1   21 1
     5    2    7 ar
     6    2    3 ar
     7    3    4 ar
     8    3   22 1
     9    4    5 ar
    10    4   18 1
    11    5    6 ar
    12    5    9 1
    13    6    7 ar
    14    6    8 1
    15    7   23 1
    16    8   24 1
    17    8   25 1
    18    8   26 1
    19    9   13 1
    20    9   10 2
    21   10   11 1
    22   11   12 2
    23   11   14 1
    24   12   13 1
    25   12   27 1
    26   14   15 1
    27   14   16 1
    28   14   17 1
    29   16   28 1
    30   16   29 1
    31   16   30 1
    32   17   31 1
    33   17   32 1
    34   17   36 1
    35   18   33 1
    36   18   34 1
    37   18   35 1
@<TRIPOS>MOLECULE
ZINC93891293
   47    48     0     0     0
SMALL
USER_CHARGES

@<TRIPOS>ATOM
      1 C1         -0.1583    1.4224    0.5192 C.3       1 <0>        -0.1466
      2 C2         -0.0275    0.0213    1.1198 C.3       1 <0>         0.0447
      3 N1         -1.2243   -0.7653    0.7928 N.3       1 <0>        -0.5244
      4 C3         -0.9897   -2.1982    1.0160 C.3       1 <0>         0.1092
      5 C4         -0.1512   -2.7510   -0.1076 C.2       1 <0>         0.0674
      6 C5          1.1979   -2.8451    0.0322 C.2       1 <0>        -0.2033
      7 S1          1.6458   -3.5424   -1.5526 S.3       1 <0>         0.0304
      8 C6         -0.0080   -3.6322   -2.2262 C.2       1 <0>         0.1604
      9 N2         -0.7226   -3.1473   -1.2204 N.2       1 <0>        -0.4883
     10 C7         -0.4581   -4.1207   -3.5473 C.ar      1 <0>        -0.0227
     11 C8         -1.8135   -4.0974   -3.8785 C.ar      1 <0>        -0.0709
     12 C9         -2.2269   -4.5547   -5.1127 C.ar      1 <0>        -0.1223
     13 C10        -1.3009   -5.0362   -6.0210 C.ar      1 <0>        -0.0954
     14 C11         0.0442   -5.0625   -5.6987 C.ar      1 <0>        -0.1145
     15 C12         0.4714   -4.6018   -4.4703 C.ar      1 <0>        -0.0901
     16 C13        -2.3875   -0.2968    1.5578 C.3       1 <0>         0.0614
     17 C14        -3.6603   -0.5203    0.7387 C.3       1 <0>        -0.0808
     18 C15        -3.5054    0.1371   -0.6341 C.3       1 <0>        -0.1513
     19 C16        -3.8957   -2.0217    0.5615 C.3       1 <0>        -0.1700
     20 C17        -4.8527    0.1001    1.4697 C.3       1 <0>        -0.0026
     21 N3         -6.0748   -0.1145    0.6832 N.4       1 <0>        -0.6384
     22 H1          0.7198    2.0130    0.7802 H         1 <0>         0.0636
     23 H2         -0.2363    1.3470   -0.5653 H         1 <0>         0.0627
     24 H3         -1.0517    1.9054    0.9150 H         1 <0>         0.0513
     25 H4          0.8539   -0.4698    0.7077 H         1 <0>         0.0806
     26 H5          0.0722    0.0980    2.2026 H         1 <0>         0.0406
     27 H6         -0.4668   -2.3376    1.9622 H         1 <0>         0.0563
     28 H7         -1.9450   -2.7221    1.0482 H         1 <0>         0.1012
     29 H8          1.8253   -2.5736    0.8683 H         1 <0>         0.1958
     30 H9         -2.5373   -3.7225   -3.1701 H         1 <0>         0.1308
     31 H10        -3.2756   -4.5372   -5.3703 H         1 <0>         0.1305
     32 H11        -1.6297   -5.3934   -6.9858 H         1 <0>         0.1311
     33 H12         0.7620   -5.4399   -6.4120 H         1 <0>         0.1344
     34 H13         1.5223   -4.6181   -4.2218 H         1 <0>         0.1275
     35 H14        -2.4551   -0.8526    2.4931 H         1 <0>         0.0533
     36 H15        -2.2764    0.7657    1.7738 H         1 <0>         0.0863
     37 H16        -2.6705   -0.3211   -1.1642 H         1 <0>         0.1008
     38 H17        -4.4210   -0.0018   -1.2089 H         1 <0>         0.0419
     39 H18        -3.3142    1.2027   -0.5071 H         1 <0>         0.0662
     40 H19        -3.7566   -2.5266    1.5175 H         1 <0>         0.0705
     41 H20        -4.9121   -2.1906    0.2059 H         1 <0>         0.0440
     42 H21        -3.1861   -2.4175   -0.1651 H         1 <0>         0.1058
     43 H22        -4.9631   -0.3683    2.4477 H         1 <0>         0.1340
     44 H23        -4.6850    1.1697    1.5959 H         1 <0>         0.1354
     45 H24        -6.2300   -1.1046    0.5663 H         1 <0>         0.4324
     46 H25        -6.8611    0.2946    1.1652 H         1 <0>         0.4374
     47 H26        -5.9726    0.3191   -0.2221 H         1 <0>         0.4337
@<TRIPOS>BOND
     1    1    2 1
     2    1   22 1
     3    1   23 1
     4    1   24 1
     5    2    3 1
     6    2   25 1
     7    2   26 1
     8    3    4 1
     9    3   16 1
    10    4    5 1
    11    4   27 1
    12    4   28 1
    13    5    9 1
    14    5    6 2
    15    6    7 1
    16    6   29 1
    17    7    8 1
    18    8    9 2
    19    8   10 1
    20   10   15 ar
    21   10   11 ar
    22   11   12 ar
    23   11   30 1
    24   12   13 ar
    25   12   31 1
    26   13   14 ar
    27   13   32 1
    28   14   15 ar
    29   14   33 1
    30   15   34 1
    31   16   17 1
    32   16   35 1
    33   16   36 1
    34   17   18 1
    35   17   19 1
    36   17   20 1
    37   18   37 1
    38   18   38 1
    39   18   39 1
    40   19   40 1
    41   19   41 1
    42   19   42 1
    43   20   21 1
    44   20   43 1
    45   20   44 1
    46   21   45 1
    47   21   46 1
    48   21   47 1
@<TRIPOS>MOLECULE
ZINC93891293
   48    49     0     0     0
SMALL
USER_CHARGES

@<TRIPOS>ATOM
      1 C1          0.1162   -0.6589   -2.1843 C.3       1 <0>        -0.1916
      2 C2         -0.1306   -0.0631   -0.7969 C.3       1 <0>        -0.0429
      3 N1         -1.4760   -0.4329   -0.3374 N.4       1 <0>        -0.3822
      4 C3         -2.4722    0.0402   -1.3079 C.3       1 <0>         0.0694
      5 C4         -2.4691    1.5469   -1.3369 C.2       1 <0>        -0.0056
      6 C5         -1.7401    2.2085   -2.2746 C.2       1 <0>        -0.1933
      7 S1         -2.1044    3.9045   -1.8396 S.3       1 <0>         0.1083
      8 C6         -3.1849    3.5481   -0.4603 C.2       1 <0>         0.1920
      9 N2         -3.1743    2.2226   -0.4604 N.2       1 <0>        -0.5160
     10 C7         -3.9015    4.4808    0.4359 C.ar      1 <0>        -0.0497
     11 C8         -4.6994    3.9865    1.4685 C.ar      1 <0>        -0.0641
     12 C9         -5.3654    4.8620    2.3011 C.ar      1 <0>        -0.1210
     13 C10        -5.2439    6.2274    2.1138 C.ar      1 <0>        -0.0782
     14 C11        -4.4548    6.7239    1.0916 C.ar      1 <0>        -0.1124
     15 C12        -3.7782    5.8592    0.2562 C.ar      1 <0>        -0.0819
     16 C13        -1.5672   -1.8939   -0.2148 C.3       1 <0>        -0.0099
     17 C14        -1.0596   -2.3228    1.1633 C.3       1 <0>        -0.1103
     18 C15         0.4120   -1.9305    1.3096 C.3       1 <0>        -0.1961
     19 C16        -1.8831   -1.6274    2.2492 C.3       1 <0>        -0.1900
     20 C17        -1.2001   -3.8393    1.3094 C.3       1 <0>         0.0050
     21 N3         -0.7127   -4.2511    2.6326 N.4       1 <0>        -0.6395
     22 H1          1.0843   -0.3239   -2.5566 H         1 <0>         0.1133
     23 H2          0.1087   -1.7469   -2.1190 H         1 <0>         0.0819
     24 H3         -0.6686   -0.3304   -2.8657 H         1 <0>         0.0854
     25 H4          0.6111   -0.4499   -0.0981 H         1 <0>         0.1434
     26 H5         -0.0499    1.0227   -0.8481 H         1 <0>         0.1327
     27 H6         -2.2252   -0.3428   -2.2980 H         1 <0>         0.1499
     28 H7         -3.4605   -0.3156   -1.0168 H         1 <0>         0.1458
     29 H8         -1.1141    1.8180   -3.0634 H         1 <0>         0.2080
     30 H9         -4.7956    2.9208    1.6154 H         1 <0>         0.1315
     31 H10        -5.9833    4.4807    3.1007 H         1 <0>         0.1369
     32 H11        -5.7676    6.9086    2.7681 H         1 <0>         0.1382
     33 H12        -4.3643    7.7908    0.9504 H         1 <0>         0.1407
     34 H13        -3.1583    6.2481   -0.5382 H         1 <0>         0.1293
     35 H14        -2.6054   -2.2043   -0.3324 H         1 <0>         0.1454
     36 H15        -0.9582   -2.3621   -0.9882 H         1 <0>         0.1497
     37 H16         0.4913   -0.8479    1.4084 H         1 <0>         0.0918
     38 H17         0.8289   -2.4078    2.1965 H         1 <0>         0.0792
     39 H18         0.9642   -2.2563    0.4281 H         1 <0>         0.0968
     40 H19        -2.9315   -1.9069    2.1450 H         1 <0>         0.0970
     41 H20        -1.5215   -1.9329    3.2311 H         1 <0>         0.0851
     42 H21        -1.7831   -0.5470    2.1452 H         1 <0>         0.0812
     43 H22        -2.2484   -4.1188    1.2052 H         1 <0>         0.1497
     44 H23        -0.6133   -4.3347    0.5358 H         1 <0>         0.1489
     45 H24        -0.8053   -5.2512    2.7289 H         1 <0>         0.4504
     46 H25         0.2578   -3.9923    2.7290 H         1 <0>         0.4362
     47 H26        -1.2558   -3.7925    3.3487 H         1 <0>         0.4373
     48 H27        -1.6533   -0.0083    0.5606 H         1 <0>         0.4241
@<TRIPOS>BOND
     1    1    2 1
     2    1   22 1
     3    1   23 1
     4    1   24 1
     5    2    3 1
     6    2   25 1
     7    2   26 1
     8    3    4 1
     9    3   16 1
    10    3   48 1
    11    4    5 1
    12    4   27 1
    13    4   28 1
    14    5    9 1
    15    5    6 2
    16    6    7 1
    17    6   29 1
    18    7    8 1
    19    8    9 2
    20    8   10 1
    21   10   15 ar
    22   10   11 ar
    23   11   12 ar
    24   11   30 1
    25   12   13 ar
    26   12   31 1
    27   13   14 ar
    28   13   32 1
    29   14   15 ar
    30   14   33 1
    31   15   34 1
    32   16   17 1
    33   16   35 1
    34   16   36 1
    35   17   18 1
    36   17   19 1
    37   17   20 1
    38   18   37 1
    39   18   38 1
    40   18   39 1
    41   19   40 1
    42   19   41 1
    43   19   42 1
    44   20   21 1
    45   20   43 1
    46   20   44 1
    47   21   45 1
    48   21   46 1
    49   21   47 1
@<TRIPOS>MOLECULE
ZINC94523932
   40    42     0     0     0
SMALL
USER_CHARGES

@<TRIPOS>ATOM
      1 C1         -0.0187    1.5258    0.0104 C.3       1 <0>        -0.1564
      2 C2          0.0021   -0.0041    0.0020 C.3       1 <0>        -0.1515
      3 C3         -1.4333   -0.5336    0.0129 C.3       1 <0>        -0.0102
      4 N1         -1.4134   -2.0025    0.0048 N.4       1 <0>        -0.5084
      5 C4         -2.7915   -2.5110    0.0152 C.3       1 <0>         0.0782
      6 C5         -2.7711   -4.0178    0.0069 C.2       1 <0>        -0.0079
      7 C6         -2.8583   -4.7064    1.1760 C.2       1 <0>        -0.1856
      8 S1         -2.7866   -6.3890    0.5739 S.3       1 <0>         0.0892
      9 C7         -2.6487   -5.9924   -1.1641 C.2       1 <0>         0.1903
     10 N2         -2.6745   -4.6675   -1.1290 N.2       1 <0>        -0.5115
     11 C8         -2.5406   -6.8985   -2.3277 C.ar      1 <0>        -0.0513
     12 C9         -2.4351   -6.3742   -3.6167 C.ar      1 <0>        -0.0565
     13 C10        -2.3346   -7.2250   -4.6981 C.ar      1 <0>        -0.1167
     14 C11        -2.3386   -8.5952   -4.5068 C.ar      1 <0>        -0.0087
     15 C12        -2.4434   -9.1214   -3.2315 C.ar      1 <0>        -0.1202
     16 C13        -2.5378   -8.2814   -2.1411 C.ar      1 <0>        -0.0763
     17 C14        -2.2289   -9.5186   -5.6927 C.3       1 <0>        -0.1363
     18 C15        -2.4408  -11.0136   -5.4460 C.3       1 <0>        -0.1721
     19 C16        -1.0372  -10.4771   -5.7338 C.3       1 <0>        -0.1623
     20 H1          1.0039    1.9031    0.0027 H         1 <0>         0.0776
     21 H2         -0.5459    1.8868   -0.8726 H         1 <0>         0.0676
     22 H3         -0.5289    1.8773    0.9072 H         1 <0>         0.0674
     23 H4          0.5123   -0.3556   -0.8948 H         1 <0>         0.0863
     24 H5          0.5293   -0.3651    0.8851 H         1 <0>         0.0861
     25 H6         -1.9435   -0.1821    0.9097 H         1 <0>         0.1330
     26 H7         -1.9605   -0.1726   -0.8702 H         1 <0>         0.1331
     27 H8         -0.9411   -2.3279   -0.8254 H         1 <0>         0.4311
     28 H9         -3.3017   -2.1594    0.9120 H         1 <0>         0.1454
     29 H10        -3.3187   -2.1499   -0.8678 H         1 <0>         0.1447
     30 H11        -2.9462   -4.3392    2.1878 H         1 <0>         0.2096
     31 H12        -2.4325   -5.3047   -3.7673 H         1 <0>         0.1355
     32 H13        -2.2529   -6.8205   -5.6961 H         1 <0>         0.1366
     33 H14        -2.4463  -10.1919   -3.0889 H         1 <0>         0.1381
     34 H15        -2.6143   -8.6933   -1.1457 H         1 <0>         0.1291
     35 H16        -2.5791   -9.1100   -6.6406 H         1 <0>         0.1203
     36 H17        -2.6595  -11.3293   -4.4259 H         1 <0>         0.1005
     37 H18        -2.9307  -11.5889   -6.2316 H         1 <0>         0.1043
     38 H19        -0.6036  -10.6995   -6.7089 H         1 <0>         0.1039
     39 H20        -0.3324  -10.4399   -4.9031 H         1 <0>         0.0980
     40 H21        -0.9254   -2.3367    0.8222 H         1 <0>         0.4261
@<TRIPOS>BOND
     1    1    2 1
     2    1   20 1
     3    1   21 1
     4    1   22 1
     5    2    3 1
     6    2   23 1
     7    2   24 1
     8    3    4 1
     9    3   25 1
    10    3   26 1
    11    4    5 1
    12    4   27 1
    13    4   40 1
    14    5    6 1
    15    5   28 1
    16    5   29 1
    17    6   10 1
    18    6    7 2
    19    7    8 1
    20    7   30 1
    21    8    9 1
    22    9   10 2
    23    9   11 1
    24   11   16 ar
    25   11   12 ar
    26   12   13 ar
    27   12   31 1
    28   13   14 ar
    29   13   32 1
    30   14   15 ar
    31   14   17 1
    32   15   16 ar
    33   15   33 1
    34   16   34 1
    35   17   19 1
    36   17   18 1
    37   17   35 1
    38   18   19 1
    39   18   36 1
    40   18   37 1
    41   19   38 1
    42   19   39 1
@<TRIPOS>MOLECULE
ZINC41010040
   39    40     0     0     0
SMALL
USER_CHARGES

@<TRIPOS>ATOM
      1 C1         -0.7555   -8.5547    2.5962 C.3       1 <0>        -0.1900
      2 C2         -0.7265   -7.3605    3.5521 C.3       1 <0>        -0.0094
      3 N1          0.2409   -6.3676    3.0661 N.4       1 <0>        -0.5089
      4 C3          0.2687   -5.2210    3.9840 C.3       1 <0>         0.0783
      5 C4          1.2612   -4.2024    3.4854 C.2       1 <0>        -0.0147
      6 C5          0.8408   -3.1595    2.7211 C.2       1 <0>        -0.1854
      7 S1          2.3908   -2.3140    2.4355 S.3       1 <0>         0.0868
      8 C6          3.4263   -3.4388    3.3627 C.2       1 <0>         0.1980
      9 N2          2.5317   -4.3175    3.7927 N.2       1 <0>        -0.5003
     10 C7          4.8864   -3.3969    3.5925 C.ar      1 <0>        -0.0595
     11 C8          5.7583   -3.1880    2.5232 C.ar      1 <0>        -0.0369
     12 C9          7.1196   -3.1501    2.7444 C.ar      1 <0>        -0.1281
     13 C10         7.6207   -3.3192    4.0228 C.ar      1 <0>        -0.0376
     14 C11         6.7617   -3.5272    5.0872 C.ar      1 <0>        -0.1304
     15 C12         5.3980   -3.5606    4.8805 C.ar      1 <0>        -0.0218
     16 C13         4.4633   -3.7800    6.0421 C.3       1 <0>        -0.1134
     17 C14         9.1088   -3.2771    4.2570 C.3       1 <0>        -0.1265
     18 C15         5.2142   -3.0046    1.1299 C.3       1 <0>        -0.1282
     19 H1          0.2356   -9.0061    2.5485 H         1 <0>         0.0806
     20 H2         -1.4733   -9.2915    2.9568 H         1 <0>         0.1081
     21 H3         -1.0493   -8.2174    1.6022 H         1 <0>         0.0803
     22 H4         -1.7175   -6.9091    3.5998 H         1 <0>         0.1322
     23 H5         -0.4327   -7.6978    4.5461 H         1 <0>         0.1323
     24 H6          1.1583   -6.7854    3.0220 H         1 <0>         0.4310
     25 H7         -0.7223   -4.7696    4.0317 H         1 <0>         0.1447
     26 H8          0.5626   -5.5583    4.9780 H         1 <0>         0.1441
     27 H9         -0.1534   -2.9108    2.3804 H         1 <0>         0.2084
     28 H10         7.7955   -2.9885    1.9177 H         1 <0>         0.1358
     29 H11         7.1592   -3.6588    6.0827 H         1 <0>         0.1351
     30 H12         4.2148   -4.8389    6.1135 H         1 <0>         0.0793
     31 H13         4.9473   -3.4574    6.9639 H         1 <0>         0.0733
     32 H14         3.5516   -3.2024    5.8890 H         1 <0>         0.0615
     33 H15         9.4145   -2.2524    4.4684 H         1 <0>         0.0814
     34 H16         9.3614   -3.9139    5.1048 H         1 <0>         0.0742
     35 H17         9.6269   -3.6345    3.3671 H         1 <0>         0.0742
     36 H18         5.0294   -1.9459    0.9484 H         1 <0>         0.0819
     37 H19         5.9385   -3.3764    0.4052 H         1 <0>         0.0827
     38 H20         4.2812   -3.5590    1.0283 H         1 <0>         0.0613
     39 H21        -0.0311   -6.0553    2.1460 H         1 <0>         0.4256
@<TRIPOS>BOND
     1    1    2 1
     2    1   19 1
     3    1   20 1
     4    1   21 1
     5    2    3 1
     6    2   22 1
     7    2   23 1
     8    3    4 1
     9    3   24 1
    10    3   39 1
    11    4    5 1
    12    4   25 1
    13    4   26 1
    14    5    9 1
    15    5    6 2
    16    6    7 1
    17    6   27 1
    18    7    8 1
    19    8    9 2
    20    8   10 1
    21   10   15 ar
    22   10   11 ar
    23   11   12 ar
    24   11   18 1
    25   12   13 ar
    26   12   28 1
    27   13   14 ar
    28   13   17 1
    29   14   15 ar
    30   14   29 1
    31   15   16 1
    32   16   30 1
    33   16   31 1
    34   16   32 1
    35   17   33 1
    36   17   34 1
    37   17   35 1
    38   18   36 1
    39   18   37 1
    40   18   38 1
@<TRIPOS>MOLECULE
ZINC88567477
   34    35     0     0     0
SMALL
USER_CHARGES

@<TRIPOS>ATOM
      1 C1         -0.0187    1.5258    0.0104 C.3       1 <0>        -0.1748
      2 C2          0.0021   -0.0041    0.0020 C.3       1 <0>         0.1094
      3 H1          0.5123   -0.3556   -0.8948 H         1 <0>         0.1576
      4 C3          0.7309   -0.5033    1.2229 C.2       1 <0>         0.0416
      5 C4          0.1263   -1.3835    2.0645 C.2       1 <0>        -0.2638
      6 S1          1.4142   -1.6113    3.2844 S.3       1 <0>         0.1026
      7 C5          2.6137   -0.5124    2.5423 C.2       1 <0>         0.1999
      8 N1          1.9522   -0.0933    1.4727 N.2       1 <0>        -0.5019
      9 C6          3.9781   -0.1680    2.9965 C.ar      1 <0>        -0.0415
     10 C7          4.7554    0.7289    2.2626 C.ar      1 <0>        -0.0602
     11 C8          6.0277    1.0460    2.6918 C.ar      1 <0>        -0.0998
     12 C9          6.5334    0.4765    3.8468 C.ar      1 <0>        -0.0509
     13 C10         5.7680   -0.4138    4.5787 C.ar      1 <0>        -0.0954
     14 C11         4.4917   -0.7341    4.1640 C.ar      1 <0>        -0.0831
     15 C12         7.9242    0.8270    4.3094 C.3       1 <0>         0.0915
     16 O1          7.8658    1.9604    5.1778 O.3       1 <0>        -0.3852
     17 C13         9.1387    2.3774    5.6756 C.3       1 <0>         0.0288
     18 N2         -1.3761   -0.5125    0.0124 N.4       1 <0>        -0.6348
     19 H2          1.0039    1.9031    0.0027 H         1 <0>         0.1151
     20 H3         -0.5459    1.8868   -0.8726 H         1 <0>         0.0880
     21 H4         -0.5289    1.8773    0.9072 H         1 <0>         0.0806
     22 H5         -0.8587   -1.8231    2.0112 H         1 <0>         0.1978
     23 H6          4.3621    1.1736    1.3604 H         1 <0>         0.1391
     24 H7          6.6304    1.7400    2.1247 H         1 <0>         0.1385
     25 H8          6.1687   -0.8552    5.4793 H         1 <0>         0.1394
     26 H9          3.8933   -1.4253    4.7390 H         1 <0>         0.1309
     27 H10         8.3530   -0.0197    4.8454 H         1 <0>         0.0660
     28 H11         8.5457    1.0628    3.4456 H         1 <0>         0.0659
     29 H12         9.5928    1.5628    6.2399 H         1 <0>         0.0459
     30 H13         9.7855    2.6453    4.8402 H         1 <0>         0.0457
     31 H14         9.0088    3.2421    6.3264 H         1 <0>         0.0916
     32 H15        -1.8641   -0.1783   -0.8050 H         1 <0>         0.4438
     33 H16        -1.3624   -1.5214    0.0069 H         1 <0>         0.4367
     34 H17        -1.8484   -0.1871    0.8426 H         1 <0>         0.4351
@<TRIPOS>BOND
     1    1    2 1
     2    1   19 1
     3    1   20 1
     4    1   21 1
     5    2    3 1
     6    2    4 1
     7    2   18 1
     8    4    8 1
     9    4    5 2
    10    5    6 1
    11    5   22 1
    12    6    7 1
    13    7    8 2
    14    7    9 1
    15    9   14 ar
    16    9   10 ar
    17   10   11 ar
    18   10   23 1
    19   11   12 ar
    20   11   24 1
    21   12   13 ar
    22   12   15 1
    23   13   14 ar
    24   13   25 1
    25   14   26 1
    26   15   16 1
    27   15   27 1
    28   15   28 1
    29   16   17 1
    30   17   29 1
    31   17   30 1
    32   17   31 1
    33   18   32 1
    34   18   33 1
    35   18   34 1
@<TRIPOS>MOLECULE
ZINC88567478
   34    35     0     0     0
SMALL
USER_CHARGES

@<TRIPOS>ATOM
      1 C1         -0.0187    1.5258    0.0104 C.3       1 <0>        -0.1773
      2 C2          0.0021   -0.0041    0.0020 C.3       1 <0>         0.1172
      3 H1          0.5123   -0.3556   -0.8948 H         1 <0>         0.1531
      4 C3         -1.4117   -0.5257    0.0127 C.2       1 <0>        -0.0072
      5 C4         -1.8247   -1.3934   -0.9491 C.2       1 <0>        -0.1785
      6 S1         -3.5212   -1.6577   -0.4485 S.3       1 <0>         0.0959
      7 C5         -3.4951   -0.5866    0.9830 C.2       1 <0>         0.1858
      8 N1         -2.2447   -0.1474    0.9534 N.2       1 <0>        -0.5151
      9 C6         -4.5757   -0.2782    1.9441 C.ar      1 <0>        -0.0372
     10 C7         -4.3425    0.6015    3.0020 C.ar      1 <0>        -0.0651
     11 C8         -5.3549    0.8850    3.8954 C.ar      1 <0>        -0.0997
     12 C9         -6.5990    0.2989    3.7444 C.ar      1 <0>        -0.0529
     13 C10        -6.8366   -0.5744    2.6980 C.ar      1 <0>        -0.0938
     14 C11        -5.8346   -0.8612    1.7939 C.ar      1 <0>        -0.0846
     15 C12        -7.7001    0.6128    4.7242 C.3       1 <0>         0.0916
     16 O1         -8.4407    1.7443    4.2622 O.3       1 <0>        -0.3852
     17 C13        -9.5144    2.1274    5.1238 C.3       1 <0>         0.0288
     18 N2          0.7126   -0.4907    1.1921 N.4       1 <0>        -0.6340
     19 H2          1.0039    1.9031    0.0027 H         1 <0>         0.0862
     20 H3         -0.5459    1.8868   -0.8726 H         1 <0>         0.1037
     21 H4         -0.5289    1.8773    0.9072 H         1 <0>         0.0899
     22 H5         -1.2795   -1.8079   -1.7842 H         1 <0>         0.2103
     23 H6         -3.3715    1.0590    3.1214 H         1 <0>         0.1358
     24 H7         -5.1758    1.5656    4.7145 H         1 <0>         0.1372
     25 H8         -7.8099   -1.0289    2.5858 H         1 <0>         0.1392
     26 H9         -6.0228   -1.5391    0.9744 H         1 <0>         0.1312
     27 H10        -8.3654   -0.2462    4.8106 H         1 <0>         0.0658
     28 H11        -7.2663    0.8360    5.6990 H         1 <0>         0.0652
     29 H12       -10.2173    1.2998    5.2185 H         1 <0>         0.0461
     30 H13        -9.1183    2.3820    6.1068 H         1 <0>         0.0456
     31 H14       -10.0266    2.9928    4.7032 H         1 <0>         0.0919
     32 H15         0.2403   -0.1653    2.0223 H         1 <0>         0.4380
     33 H16         0.7262   -1.4996    1.1866 H         1 <0>         0.4346
     34 H17         1.6592   -0.1415    1.1850 H         1 <0>         0.4372
@<TRIPOS>BOND
     1    1    2 1
     2    1   19 1
     3    1   20 1
     4    1   21 1
     5    2    3 1
     6    2    4 1
     7    2   18 1
     8    4    8 1
     9    4    5 2
    10    5    6 1
    11    5   22 1
    12    6    7 1
    13    7    8 2
    14    7    9 1
    15    9   14 ar
    16    9   10 ar
    17   10   11 ar
    18   10   23 1
    19   11   12 ar
    20   11   24 1
    21   12   13 ar
    22   12   15 1
    23   13   14 ar
    24   13   25 1
    25   14   26 1
    26   15   16 1
    27   15   27 1
    28   15   28 1
    29   16   17 1
    30   17   29 1
    31   17   30 1
    32   17   31 1
    33   18   32 1
    34   18   33 1
    35   18   34 1
@<TRIPOS>MOLECULE
ZINC93874137
   44    45     0     0     0
SMALL
USER_CHARGES

@<TRIPOS>ATOM
      1 C1         -1.4184   -0.9554    0.5275 C.3       1 <0>        -0.1656
      2 C2         -0.0431   -0.3915    0.1648 C.3       1 <0>        -0.0753
      3 C3          0.0090    1.0952    0.5226 C.3       1 <0>        -0.1720
      4 C4          1.0379   -1.1420    0.9452 C.3       1 <0>         0.0036
      5 N1          0.8054   -0.9767    2.3862 N.4       1 <0>        -0.6406
      6 C5          0.1990   -0.5636   -1.3361 C.3       1 <0>         0.0572
      7 N2          1.5225   -0.0289   -1.6831 N.3       1 <0>        -0.5397
      8 C6          1.4512    1.4109   -1.9654 C.3       1 <0>         0.0017
      9 C7          2.1048   -0.7594   -2.8168 C.3       1 <0>         0.1234
     10 C8          3.5466   -0.3556   -2.9874 C.2       1 <0>         0.0635
     11 C9          4.5340   -1.1021   -2.4250 C.2       1 <0>        -0.1949
     12 S1          5.9779   -0.1806   -2.9392 S.3       1 <0>         0.0232
     13 C10         5.1111    1.0946   -3.8445 C.2       1 <0>         0.1705
     14 N3          3.8515    0.7141   -3.6836 N.2       1 <0>        -0.4999
     15 C11         5.6536    2.2575   -4.5794 C.ar      1 <0>        -0.0295
     16 C12         4.7897    3.1463   -5.2205 C.ar      1 <0>        -0.0684
     17 C13         5.3023    4.2293   -5.9046 C.ar      1 <0>        -0.1205
     18 C14         6.6695    4.4348   -5.9561 C.ar      1 <0>        -0.0926
     19 C15         7.5313    3.5570   -5.3229 C.ar      1 <0>        -0.1164
     20 C16         7.0313    2.4739   -4.6299 C.ar      1 <0>        -0.0893
     21 H1         -2.1921   -0.3845    0.0141 H         1 <0>         0.0839
     22 H2         -1.4747   -2.0002    0.2221 H         1 <0>         0.0751
     23 H3         -1.5681   -0.8832    1.6047 H         1 <0>         0.0545
     24 H4         -0.4221    1.2461    1.5122 H         1 <0>         0.0559
     25 H5          1.0454    1.4328    0.5224 H         1 <0>         0.0806
     26 H6         -0.5591    1.6659   -0.2121 H         1 <0>         0.0824
     27 H7          1.0008   -2.2011    0.6903 H         1 <0>         0.1315
     28 H8          2.0176   -0.7403    0.6868 H         1 <0>         0.1466
     29 H9         -0.1016   -1.3486    2.6254 H         1 <0>         0.4304
     30 H10         1.5183   -1.4717    2.9009 H         1 <0>         0.4370
     31 H11         0.1564   -1.6223   -1.5919 H         1 <0>         0.0835
     32 H12        -0.5679   -0.0243   -1.8921 H         1 <0>         0.0652
     33 H13         1.2218    1.9504   -1.0464 H         1 <0>         0.0764
     34 H14         2.4092    1.7522   -2.3576 H         1 <0>         0.0851
     35 H15         0.6695    1.5985   -2.7015 H         1 <0>         0.0340
     36 H16         2.0477   -1.8311   -2.6263 H         1 <0>         0.0917
     37 H17         1.5510   -0.5218   -3.7251 H         1 <0>         0.0584
     38 H18         4.4653   -2.0020   -1.8318 H         1 <0>         0.1962
     39 H19         3.7223    2.9866   -5.1817 H         1 <0>         0.1334
     40 H20         4.6348    4.9180   -6.4012 H         1 <0>         0.1332
     41 H21         7.0657    5.2839   -6.4931 H         1 <0>         0.1321
     42 H22         8.5976    3.7228   -5.3672 H         1 <0>         0.1345
     43 H23         7.7048    1.7923   -4.1318 H         1 <0>         0.1269
     44 H24         0.8398    0.0037    2.6222 H         1 <0>         0.4326
@<TRIPOS>BOND
     1    1    2 1
     2    1   21 1
     3    1   22 1
     4    1   23 1
     5    2    3 1
     6    2    4 1
     7    2    6 1
     8    3   24 1
     9    3   25 1
    10    3   26 1
    11    4    5 1
    12    4   27 1
    13    4   28 1
    14    5   29 1
    15    5   30 1
    16    5   44 1
    17    6    7 1
    18    6   31 1
    19    6   32 1
    20    7    8 1
    21    7    9 1
    22    8   33 1
    23    8   34 1
    24    8   35 1
    25    9   10 1
    26    9   36 1
    27    9   37 1
    28   10   14 1
    29   10   11 2
    30   11   12 1
    31   11   38 1
    32   12   13 1
    33   13   14 2
    34   13   15 1
    35   15   20 ar
    36   15   16 ar
    37   16   17 ar
    38   16   39 1
    39   17   18 ar
    40   17   40 1
    41   18   19 ar
    42   18   41 1
    43   19   20 ar
    44   19   42 1
    45   20   43 1
@<TRIPOS>MOLECULE
ZINC93874137
   45    46     0     0     0
SMALL
USER_CHARGES

@<TRIPOS>ATOM
      1 C1         -0.5847    1.3355   -1.1423 C.3       1 <0>        -0.1921
      2 C2         -0.4307   -0.1781   -1.3037 C.3       1 <0>        -0.1106
      3 C3         -0.2854   -0.8258    0.0749 C.3       1 <0>        -0.1927
      4 C4         -1.6665   -0.7445   -2.0056 C.3       1 <0>         0.0045
      5 N1         -2.8615   -0.4569   -1.2011 N.4       1 <0>        -0.6397
      6 C5          0.8139   -0.4777   -2.1416 C.3       1 <0>        -0.0003
      7 N2          2.0152   -0.0905   -1.3899 N.4       1 <0>        -0.3828
      8 C6          2.1044    1.3746   -1.3302 C.3       1 <0>        -0.0780
      9 C7          3.2068   -0.6268   -2.0609 C.3       1 <0>         0.0754
     10 C8          4.4272   -0.3354   -1.2263 C.2       1 <0>        -0.0083
     11 C9          4.8990   -1.2710   -0.3599 C.2       1 <0>        -0.1908
     12 S1          6.3052   -0.4054    0.3270 S.3       1 <0>         0.1094
     13 C10         6.1116    1.1038   -0.6121 C.2       1 <0>         0.1944
     14 N3          5.0396    0.8198   -1.3383 N.2       1 <0>        -0.5173
     15 C11         6.9301    2.3351   -0.5889 C.ar      1 <0>        -0.0515
     16 C12         6.5967    3.4137   -1.4091 C.ar      1 <0>        -0.0634
     17 C13         7.3645    4.5596   -1.3828 C.ar      1 <0>        -0.1205
     18 C14         8.4633    4.6406   -0.5459 C.ar      1 <0>        -0.0773
     19 C15         8.7995    3.5746    0.2694 C.ar      1 <0>        -0.1127
     20 C16         8.0360    2.4255    0.2574 C.ar      1 <0>        -0.0815
     21 H1          0.0160    1.6739   -0.2981 H         1 <0>         0.0948
     22 H2         -0.2475    1.8340   -2.0511 H         1 <0>         0.0950
     23 H3         -1.6323    1.5770   -0.9627 H         1 <0>         0.0715
     24 H4         -1.1721   -0.6124    0.6718 H         1 <0>         0.0866
     25 H5         -0.1757   -1.9042   -0.0401 H         1 <0>         0.0959
     26 H6          0.5950   -0.4223    0.5749 H         1 <0>         0.0806
     27 H7         -1.7700   -0.2831   -2.9877 H         1 <0>         0.1492
     28 H8         -1.5568   -1.8229   -2.1206 H         1 <0>         0.1489
     29 H9         -2.9631    0.5413   -1.0947 H         1 <0>         0.4361
     30 H10        -3.6765   -0.8305   -1.6640 H         1 <0>         0.4504
     31 H11         0.8533   -1.5437   -2.3654 H         1 <0>         0.1436
     32 H12         0.7699    0.0877   -3.0725 H         1 <0>         0.1464
     33 H13         1.6319    1.8036   -2.2138 H         1 <0>         0.1276
     34 H14         1.5956    1.7335   -0.4356 H         1 <0>         0.1236
     35 H15         3.1521    1.6737   -1.2971 H         1 <0>         0.1481
     36 H16         3.1000   -1.7045   -2.1846 H         1 <0>         0.1459
     37 H17         3.3150   -0.1578   -3.0389 H         1 <0>         0.1474
     38 H18         4.5273   -2.2622   -0.1456 H         1 <0>         0.2088
     39 H19         5.7396    3.3515   -2.0633 H         1 <0>         0.1323
     40 H20         7.1076    5.3952   -2.0170 H         1 <0>         0.1377
     41 H21         9.0613    5.5398   -0.5293 H         1 <0>         0.1383
     42 H22         9.6586    3.6440    0.9201 H         1 <0>         0.1406
     43 H23         8.2964    1.5960    0.8981 H         1 <0>         0.1291
     44 H24        -2.7657   -0.8841   -0.2920 H         1 <0>         0.4367
     45 H25         1.9604   -0.4625   -0.4535 H         1 <0>         0.4210
@<TRIPOS>BOND
     1    1    2 1
     2    1   21 1
     3    1   22 1
     4    1   23 1
     5    2    3 1
     6    2    4 1
     7    2    6 1
     8    3   24 1
     9    3   25 1
    10    3   26 1
    11    4    5 1
    12    4   27 1
    13    4   28 1
    14    5   29 1
    15    5   30 1
    16    5   44 1
    17    6    7 1
    18    6   31 1
    19    6   32 1
    20    7    8 1
    21    7    9 1
    22    7   45 1
    23    8   33 1
    24    8   34 1
    25    8   35 1
    26    9   10 1
    27    9   36 1
    28    9   37 1
    29   10   14 1
    30   10   11 2
    31   11   12 1
    32   11   38 1
    33   12   13 1
    34   13   14 2
    35   13   15 1
    36   15   20 ar
    37   15   16 ar
    38   16   17 ar
    39   16   39 1
    40   17   18 ar
    41   17   40 1
    42   18   19 ar
    43   18   41 1
    44   19   20 ar
    45   19   42 1
    46   20   43 1
@<TRIPOS>MOLECULE
ZINC91783944
   31    33     0     0     0
SMALL
USER_CHARGES

@<TRIPOS>ATOM
      1 C1         -0.0162    1.3443    0.0094 C.2       1 <0>        -0.1899
      2 C2          1.3222    1.7843   -0.0010 C.2       1 <0>        -0.1986
      3 C3          2.1074    0.6880   -0.0144 C.2       1 <0>        -0.0027
      4 N1          1.3027   -0.4127   -0.0126 N.pl3     1 <0>        -0.2937
      5 C4          0.0021   -0.0041    0.0020 C.2       1 <0>        -0.0438
      6 N2          1.7292   -1.7103   -0.0240 N.3       1 <0>        -0.4453
      7 C5          0.5908   -2.6387   -0.0180 C.3       1 <0>         0.1129
      8 C6          1.0994   -4.0572   -0.0310 C.2       1 <0>         0.0512
      9 C7          1.2392   -4.7409    1.1355 C.2       1 <0>        -0.1663
     10 S1          1.8532   -6.3072    0.5285 S.3       1 <0>         0.0368
     11 C8          1.8565   -5.8815   -1.2081 C.2       1 <0>         0.1577
     12 N3          1.4028   -4.6364   -1.1691 N.2       1 <0>        -0.4949
     13 C9          2.2531   -6.6995   -2.3740 C.ar      1 <0>        -0.0313
     14 C10         2.1838   -6.1644   -3.6611 C.ar      1 <0>        -0.0399
     15 C11         2.5549   -6.9318   -4.7452 C.ar      1 <0>        -0.1535
     16 C12         2.9957   -8.2323   -4.5583 C.ar      1 <0>         0.1226
     17 C13         3.0664   -8.7686   -3.2824 C.ar      1 <0>        -0.1505
     18 C14         2.7036   -8.0077   -2.1909 C.ar      1 <0>        -0.0607
     19 F1          3.3572   -8.9802   -5.6238 F         1 <0>        -0.1313
     20 H1         -0.8952    1.9716    0.0252 H         1 <0>         0.1394
     21 H2          1.6577    2.8109    0.0008 H         1 <0>         0.1415
     22 H3          3.1873    0.6828   -0.0247 H         1 <0>         0.1643
     23 H4         -0.8642   -0.6491    0.0068 H         1 <0>         0.1615
     24 H5          2.3342   -1.8852   -0.8124 H         1 <0>         0.3580
     25 H6         -0.0067   -2.4751    0.8788 H         1 <0>         0.1056
     26 H7         -0.0242   -2.4652   -0.9010 H         1 <0>         0.0693
     27 H8          1.0362   -4.4255    2.1483 H         1 <0>         0.2046
     28 H9          1.8398   -5.1512   -3.8079 H         1 <0>         0.1456
     29 H10         2.5017   -6.5186   -5.7417 H         1 <0>         0.1461
     30 H11         3.4106   -9.7827   -3.1422 H         1 <0>         0.1469
     31 H12         2.7637   -8.4250   -1.1965 H         1 <0>         0.1386
@<TRIPOS>BOND
     1    1    5 2
     2    1    2 1
     3    1   20 1
     4    2    3 2
     5    2   21 1
     6    3    4 1
     7    3   22 1
     8    4    5 1
     9    4    6 1
    10    5   23 1
    11    6    7 1
    12    6   24 1
    13    7    8 1
    14    7   25 1
    15    7   26 1
    16    8   12 1
    17    8    9 2
    18    9   10 1
    19    9   27 1
    20   10   11 1
    21   11   12 2
    22   11   13 1
    23   13   18 ar
    24   13   14 ar
    25   14   15 ar
    26   14   28 1
    27   15   16 ar
    28   15   29 1
    29   16   17 ar
    30   16   19 1
    31   17   18 ar
    32   17   30 1
    33   18   31 1
@<TRIPOS>MOLECULE
ZINC40999704
   33    34     0     0     0
SMALL
USER_CHARGES

@<TRIPOS>ATOM
      1 C1         -0.0187    1.5258    0.0104 C.3       1 <0>        -0.1844
      2 C2          0.0021   -0.0041    0.0020 C.3       1 <0>         0.0244
      3 C3          0.7421   -0.5109    1.2415 C.3       1 <0>        -0.1856
      4 N1         -1.3761   -0.5125    0.0124 N.4       1 <0>        -0.5068
      5 C4         -1.3591   -1.9758   -0.1163 C.3       1 <0>         0.0739
      6 C5         -2.7729   -2.4974   -0.1056 C.2       1 <0>        -0.0092
      7 C6         -3.4210   -2.7316   -1.2773 C.2       1 <0>        -0.1766
      8 S1         -4.9984   -3.3168   -0.6707 S.3       1 <0>         0.1078
      9 C7         -4.6234   -3.1860    1.0727 C.2       1 <0>         0.1737
     10 N2         -3.3786   -2.7315    1.0351 N.2       1 <0>        -0.4995
     11 C8         -5.4715   -3.5037    2.2413 C.ar      1 <0>        -0.0203
     12 C9         -4.9788   -3.3209    3.5343 C.ar      1 <0>        -0.0449
     13 C10        -5.7731   -3.6184    4.6219 C.ar      1 <0>        -0.1245
     14 C11        -7.0590   -4.0984    4.4337 C.ar      1 <0>         0.1049
     15 C12        -7.5549   -4.2824    3.1507 C.ar      1 <0>         0.0778
     16 C13        -6.7691   -3.9818    2.0552 C.ar      1 <0>        -0.0954
     17 F1         -8.8096   -4.7508    2.9730 F         1 <0>        -0.1141
     18 F2         -7.8325   -4.3887    5.5026 F         1 <0>        -0.1124
     19 H1          1.0039    1.9031    0.0027 H         1 <0>         0.1080
     20 H2         -0.5459    1.8868   -0.8726 H         1 <0>         0.0816
     21 H3         -0.5289    1.8773    0.9072 H         1 <0>         0.0815
     22 H4          0.5123   -0.3556   -0.8948 H         1 <0>         0.1405
     23 H5          0.2319   -0.1594    2.1383 H         1 <0>         0.0826
     24 H6          0.7568   -1.6008    1.2356 H         1 <0>         0.0819
     25 H7          1.7647   -0.1336    1.2338 H         1 <0>         0.1068
     26 H8         -1.8225   -0.2564    0.8803 H         1 <0>         0.4291
     27 H9         -0.8769   -2.2525   -1.0538 H         1 <0>         0.1463
     28 H10        -0.8062   -2.4075    0.7180 H         1 <0>         0.1472
     29 H11        -3.0785   -2.6002   -2.2930 H         1 <0>         0.2123
     30 H12        -3.9765   -2.9471    3.6831 H         1 <0>         0.1533
     31 H13        -5.3917   -3.4773    5.6224 H         1 <0>         0.1616
     32 H14        -7.1566   -4.1208    1.0567 H         1 <0>         0.1522
     33 H15        -1.8879   -0.1129   -0.7598 H         1 <0>         0.4262
@<TRIPOS>BOND
     1    1    2 1
     2    1   19 1
     3    1   20 1
     4    1   21 1
     5    2    3 1
     6    2    4 1
     7    2   22 1
     8    3   23 1
     9    3   24 1
    10    3   25 1
    11    4    5 1
    12    4   26 1
    13    4   33 1
    14    5    6 1
    15    5   27 1
    16    5   28 1
    17    6   10 1
    18    6    7 2
    19    7    8 1
    20    7   29 1
    21    8    9 1
    22    9   10 2
    23    9   11 1
    24   11   16 ar
    25   11   12 ar
    26   12   13 ar
    27   12   30 1
    28   13   14 ar
    29   13   31 1
    30   14   15 ar
    31   14   18 1
    32   15   16 ar
    33   15   17 1
    34   16   32 1
@<TRIPOS>MOLECULE
ZINC04219189
   20    21     0     0     0
SMALL
USER_CHARGES
2-(4-fluorophenyl)thiazole-4-carbaldehyde
@<TRIPOS>ATOM
      1 C1         -2.4449   -0.4697    0.0301 C.ar      1 <0>        -0.0395
      2 C2         -3.5016   -1.3560    0.0303 C.ar      1 <0>        -0.1525
      3 C3         -3.2640   -2.7213    0.0205 C.ar      1 <0>         0.1215
      4 C4         -1.9648   -3.2034    0.0048 C.ar      1 <0>        -0.1508
      5 C5         -0.9011   -2.3256   -0.0013 C.ar      1 <0>        -0.0627
      6 C6         -1.1348   -0.9499    0.0085 C.ar      1 <0>        -0.0314
      7 C7          0.0021   -0.0041    0.0020 C.2       1 <0>         0.1333
      8 N1         -0.0158    1.3145    0.0093 N.2       1 <0>        -0.4482
      9 C8          1.1291    1.9955    0.0020 C.2       1 <0>        -0.0488
     10 C9          2.3217    1.2878   -0.0132 C.2       1 <0>        -0.1785
     11 S1          1.7528   -0.3527   -0.0166 S.3       1 <0>         0.1056
     12 C10         1.1283    3.4601    0.0094 C.2       1 <0>         0.4014
     13 O1          0.0771    4.0663    0.0227 O.2       1 <0>        -0.4336
     14 F1         -4.3026   -3.5853    0.0269 F         1 <0>        -0.1318
     15 H1         -2.6310    0.5940    0.0422 H         1 <0>         0.1477
     16 H2         -4.5159   -0.9854    0.0425 H         1 <0>         0.1464
     17 H3         -1.7850   -4.2683   -0.0024 H         1 <0>         0.1466
     18 H4          0.1110   -2.7023   -0.0132 H         1 <0>         0.1382
     19 H5          3.3360    1.6589   -0.0206 H         1 <0>         0.2129
     20 H6          2.0633    4.0007    0.0030 H         1 <0>         0.1242
@<TRIPOS>BOND
     1    1    6 ar
     2    1    2 ar
     3    1   15 1
     4    2    3 ar
     5    2   16 1
     6    3    4 ar
     7    3   14 1
     8    4    5 ar
     9    4   17 1
    10    5    6 ar
    11    5   18 1
    12    6    7 1
    13    7   11 1
    14    7    8 2
    15    8    9 1
    16    9   10 2
    17    9   12 1
    18   10   11 1
    19   10   19 1
    20   12   13 2
    21   12   20 1
@<TRIPOS>MOLECULE
ZINC62606600
   22    23     0     0     0
SMALL
USER_CHARGES

@<TRIPOS>ATOM
      1 C1         -0.0167    1.3792    0.0096 C.ar      1 <0>        -0.1143
      2 C2          1.1661    2.0896    0.0021 C.ar      1 <0>        -0.0598
      3 C3          2.3851    1.4109   -0.0132 C.ar      1 <0>        -0.0428
      4 C4          2.3996    0.0135   -0.0208 C.ar      1 <0>         0.1569
      5 C5          1.2064   -0.6861   -0.0132 C.ar      1 <0>        -0.0801
      6 C6          0.0021   -0.0041    0.0020 C.ar      1 <0>        -0.0612
      7 Cl1         1.2194   -2.4221   -0.0227 Cl        1 <0>        -0.0357
      8 F1          3.5752   -0.6520   -0.0361 F         1 <0>        -0.1005
      9 C7          3.6557    2.1666   -0.0217 C.2       1 <0>         0.1482
     10 N1          4.9024    1.7162   -0.0416 N.2       1 <0>        -0.4785
     11 C8          5.9243    2.5399   -0.0468 C.2       1 <0>         0.0536
     12 C9          5.7124    3.8825   -0.0317 C.2       1 <0>        -0.1801
     13 S1          3.9247    3.9342   -0.0160 S.3       1 <0>         0.0449
     14 C10         7.3304    1.9980   -0.0691 C.3       1 <0>         0.0498
     15 C11         7.5157    1.0682    1.0569 C.1       1 <0>         0.2095
     16 N2          7.6588    0.3506    1.9259 N.1       1 <0>        -0.4222
     17 H1         -0.9601    1.9047    0.0260 H         1 <0>         0.1512
     18 H2          1.1485    3.1694    0.0078 H         1 <0>         0.1445
     19 H3         -0.9272   -0.5543    0.0083 H         1 <0>         0.1516
     20 H4          6.4257    4.6933   -0.0332 H         1 <0>         0.2095
     21 H5          7.5018    1.4709   -1.0076 H         1 <0>         0.1269
     22 H6          8.0387    2.8218    0.0196 H         1 <0>         0.1285
@<TRIPOS>BOND
     1    1    6 ar
     2    1    2 ar
     3    1   17 1
     4    2    3 ar
     5    2   18 1
     6    3    4 ar
     7    3    9 1
     8    4    5 ar
     9    4    8 1
    10    5    6 ar
    11    5    7 1
    12    6   19 1
    13    9   13 1
    14    9   10 2
    15   10   11 1
    16   11   12 2
    17   11   14 1
    18   12   13 1
    19   12   20 1
    20   14   15 1
    21   14   21 1
    22   14   22 1
    23   15   16 3
@<TRIPOS>MOLECULE
ZINC70185936
   34    35     0     0     0
SMALL
USER_CHARGES

@<TRIPOS>ATOM
      1 C1         -0.0225    1.8097    0.0120 C.3       1 <0>        -0.1239
      2 S1          0.0021   -0.0041    0.0020 S.3       1 <0>        -0.2062
      3 C2         -1.7518   -0.4668    0.0163 C.3       1 <0>        -0.1444
      4 C3         -1.8771   -1.9917    0.0093 C.3       1 <0>         0.0117
      5 N1         -3.2974   -2.3664    0.0208 N.4       1 <0>        -0.5058
      6 C4         -3.4176   -3.8305    0.0141 C.3       1 <0>         0.0789
      7 C5         -4.8747   -4.2149    0.0260 C.2       1 <0>        -0.0091
      8 C6         -5.5166   -4.4864   -1.1410 C.2       1 <0>        -0.1808
      9 S2         -7.1555   -4.8679   -0.5352 S.3       1 <0>         0.0980
     10 C7         -6.8077   -4.6248    1.2017 C.2       1 <0>         0.1843
     11 N2         -5.5246   -4.2934    1.1636 N.2       1 <0>        -0.5078
     12 C8         -7.7072   -4.7618    2.3670 C.ar      1 <0>        -0.0552
     13 C9         -7.2277   -4.5164    3.6545 C.ar      1 <0>        -0.0330
     14 C10        -8.0711   -4.6457    4.7380 C.ar      1 <0>        -0.1556
     15 C11        -9.3924   -5.0191    4.5502 C.ar      1 <0>         0.1394
     16 C12        -9.8736   -5.2640    3.2738 C.ar      1 <0>        -0.1500
     17 C13        -9.0404   -5.1315    2.1829 C.ar      1 <0>        -0.0533
     18 F1        -10.2142   -5.1452    5.6151 F         1 <0>        -0.1239
     19 H1          1.0001    2.1870    0.0043 H         1 <0>         0.1170
     20 H2         -0.5497    2.1708   -0.8711 H         1 <0>         0.0856
     21 H3         -0.5327    2.1613    0.9088 H         1 <0>         0.0858
     22 H4         -2.2257   -0.0675    0.9130 H         1 <0>         0.1042
     23 H5         -2.2427   -0.0579   -0.8669 H         1 <0>         0.1040
     24 H6         -1.4032   -2.3910   -0.8874 H         1 <0>         0.1436
     25 H7         -1.3862   -2.4006    0.8924 H         1 <0>         0.1436
     26 H8         -3.7360   -1.9967    0.8509 H         1 <0>         0.4319
     27 H9         -2.9438   -4.2298   -0.8826 H         1 <0>         0.1482
     28 H10        -2.9268   -4.2394    0.8973 H         1 <0>         0.1475
     29 H11        -5.1411   -4.4746   -2.1536 H         1 <0>         0.2112
     30 H12        -6.1980   -4.2260    3.8020 H         1 <0>         0.1455
     31 H13        -7.7010   -4.4559    5.7348 H         1 <0>         0.1503
     32 H14       -10.9042   -5.5547    3.1329 H         1 <0>         0.1520
     33 H15        -9.4176   -5.3179    1.1882 H         1 <0>         0.1394
     34 H16        -3.7518   -1.9879   -0.7967 H         1 <0>         0.4269
@<TRIPOS>BOND
     1    1    2 1
     2    1   19 1
     3    1   20 1
     4    1   21 1
     5    2    3 1
     6    3    4 1
     7    3   22 1
     8    3   23 1
     9    4    5 1
    10    4   24 1
    11    4   25 1
    12    5    6 1
    13    5   26 1
    14    5   34 1
    15    6    7 1
    16    6   27 1
    17    6   28 1
    18    7   11 1
    19    7    8 2
    20    8    9 1
    21    8   29 1
    22    9   10 1
    23   10   11 2
    24   10   12 1
    25   12   17 ar
    26   12   13 ar
    27   13   14 ar
    28   13   30 1
    29   14   15 ar
    30   14   31 1
    31   15   16 ar
    32   15   18 1
    33   16   17 ar
    34   16   32 1
    35   17   33 1
@<TRIPOS>MOLECULE
ZINC37715345
   39    40     0     0     0
SMALL
USER_CHARGES

@<TRIPOS>ATOM
      1 C1         -0.0169    1.3914    0.0097 C.ar      1 <0>        -0.0512
      2 C2          1.1695    2.0947    0.0021 C.ar      1 <0>        -0.1491
      3 C3          2.3789    1.4182   -0.0135 C.ar      1 <0>         0.1441
      4 C4          2.4033    0.0326   -0.0212 C.ar      1 <0>        -0.1567
      5 C5          1.2228   -0.6804   -0.0137 C.ar      1 <0>        -0.0325
      6 C6          0.0021   -0.0041    0.0020 C.ar      1 <0>        -0.0610
      7 C7         -1.2666   -0.7632    0.0105 C.2       1 <0>         0.1897
      8 N1         -1.4625   -2.0744    0.0109 N.2       1 <0>        -0.5135
      9 C8         -2.6728   -2.5824    0.0199 C.2       1 <0>        -0.0136
     10 C9         -3.7535   -1.7580    0.0291 C.2       1 <0>        -0.1862
     11 S1         -2.9497   -0.1603    0.0311 S.3       1 <0>         0.1101
     12 C10        -2.8638   -4.0772    0.0196 C.3       1 <0>         0.0800
     13 N2         -2.8166   -4.5766   -1.3611 N.4       1 <0>        -0.5090
     14 C11        -3.0028   -6.0337   -1.3614 C.3       1 <0>        -0.0092
     15 C12        -2.9536   -6.5538   -2.7995 C.3       1 <0>        -0.1500
     16 C13        -3.1476   -8.0715   -2.7998 C.3       1 <0>        -0.1512
     17 C14        -3.0984   -8.5916   -4.2379 C.3       1 <0>        -0.0087
     18 N3         -3.2847  -10.0488   -4.2382 N.4       1 <0>        -0.6391
     19 F1          3.5381    2.1119   -0.0217 F         1 <0>        -0.1212
     20 H1         -0.9588    1.9196    0.0260 H         1 <0>         0.1399
     21 H2          1.1559    3.1746    0.0081 H         1 <0>         0.1539
     22 H3          3.3485   -0.4898   -0.0334 H         1 <0>         0.1508
     23 H4          1.2429   -1.7602   -0.0204 H         1 <0>         0.1437
     24 H5         -4.8058   -2.0005    0.0368 H         1 <0>         0.2100
     25 H6         -2.0705   -4.5450    0.6025 H         1 <0>         0.1467
     26 H7         -3.8305   -4.3200    0.4609 H         1 <0>         0.1472
     27 H8         -3.5510   -4.1435   -1.9007 H         1 <0>         0.4285
     28 H9         -2.2095   -6.5016   -0.7785 H         1 <0>         0.1374
     29 H10        -3.9695   -6.2766   -0.9201 H         1 <0>         0.1373
     30 H11        -3.7470   -6.0860   -3.3824 H         1 <0>         0.0998
     31 H12        -1.9870   -6.3110   -3.2408 H         1 <0>         0.0999
     32 H13        -2.3543   -8.5393   -2.2169 H         1 <0>         0.1005
     33 H14        -4.1143   -8.3143   -2.3585 H         1 <0>         0.1003
     34 H15        -3.8918   -8.1238   -4.8208 H         1 <0>         0.1378
     35 H16        -2.1318   -8.3488   -4.6792 H         1 <0>         0.1378
     36 H17        -3.2522  -10.3918   -5.1865 H         1 <0>         0.4461
     37 H18        -2.5503  -10.4818   -3.6986 H         1 <0>         0.4386
     38 H19        -4.1795  -10.2735   -3.8297 H         1 <0>         0.4385
     39 H20        -1.9218   -4.3518   -1.7696 H         1 <0>         0.4335
@<TRIPOS>BOND
     1    1    6 ar
     2    1    2 ar
     3    1   20 1
     4    2    3 ar
     5    2   21 1
     6    3    4 ar
     7    3   19 1
     8    4    5 ar
     9    4   22 1
    10    5    6 ar
    11    5   23 1
    12    6    7 1
    13    7   11 1
    14    7    8 2
    15    8    9 1
    16    9   10 2
    17    9   12 1
    18   10   11 1
    19   10   24 1
    20   12   13 1
    21   12   25 1
    22   12   26 1
    23   13   14 1
    24   13   27 1
    25   13   39 1
    26   14   15 1
    27   14   28 1
    28   14   29 1
    29   15   16 1
    30   15   30 1
    31   15   31 1
    32   16   17 1
    33   16   32 1
    34   16   33 1
    35   17   18 1
    36   17   34 1
    37   17   35 1
    38   18   36 1
    39   18   37 1
    40   18   38 1
@<TRIPOS>MOLECULE
ZINC35250240
   34    36     0     0     0
SMALL
USER_CHARGES

@<TRIPOS>ATOM
      1 C1         -0.0169    1.3914    0.0097 C.ar      1 <0>        -0.0533
      2 C2          1.1695    2.0947    0.0021 C.ar      1 <0>        -0.1500
      3 C3          2.3789    1.4182   -0.0135 C.ar      1 <0>         0.1392
      4 C4          2.4033    0.0326   -0.0212 C.ar      1 <0>        -0.1555
      5 C5          1.2228   -0.6804   -0.0137 C.ar      1 <0>        -0.0330
      6 C6          0.0021   -0.0041    0.0020 C.ar      1 <0>        -0.0549
      7 C7         -1.2666   -0.7632    0.0105 C.2       1 <0>         0.1840
      8 N1         -1.4625   -2.0744    0.0109 N.2       1 <0>        -0.5078
      9 C8         -2.6728   -2.5824    0.0199 C.2       1 <0>        -0.0084
     10 C9         -3.7535   -1.7580    0.0291 C.2       1 <0>        -0.1815
     11 S1         -2.9497   -0.1603    0.0311 S.3       1 <0>         0.0972
     12 C10        -2.8638   -4.0772    0.0196 C.3       1 <0>         0.0778
     13 N2         -2.8166   -4.5766   -1.3611 N.4       1 <0>        -0.5056
     14 C11        -3.0028   -6.0337   -1.3614 C.3       1 <0>         0.0279
     15 C12        -2.9536   -6.5538   -2.7995 C.3       1 <0>        -0.2160
     16 C13        -4.2211   -7.2022   -3.3600 C.3       1 <0>        -0.1675
     17 C14        -3.0111   -8.0689   -3.0051 C.3       1 <0>        -0.1489
     18 F1          3.5381    2.1119   -0.0217 F         1 <0>        -0.1240
     19 H1         -0.9588    1.9196    0.0260 H         1 <0>         0.1394
     20 H2          1.1559    3.1746    0.0081 H         1 <0>         0.1519
     21 H3          3.3485   -0.4898   -0.0334 H         1 <0>         0.1502
     22 H4          1.2429   -1.7602   -0.0204 H         1 <0>         0.1454
     23 H5         -4.8058   -2.0005    0.0368 H         1 <0>         0.2108
     24 H6         -2.0705   -4.5450    0.6025 H         1 <0>         0.1457
     25 H7         -3.8305   -4.3200    0.4609 H         1 <0>         0.1460
     26 H8         -3.5510   -4.1435   -1.9007 H         1 <0>         0.4276
     27 H9         -2.2095   -6.5016   -0.7785 H         1 <0>         0.1355
     28 H10        -3.9695   -6.2766   -0.9201 H         1 <0>         0.1327
     29 H11        -2.3372   -5.9756   -3.4877 H         1 <0>         0.1255
     30 H12        -5.0899   -7.2582   -2.7042 H         1 <0>         0.1068
     31 H13        -4.4387   -7.0505   -4.4172 H         1 <0>         0.1099
     32 H14        -2.4328   -8.4873   -3.8289 H         1 <0>         0.1124
     33 H15        -3.0840   -8.6951   -2.1159 H         1 <0>         0.1086
     34 H16        -1.9218   -4.3518   -1.7696 H         1 <0>         0.4316
@<TRIPOS>BOND
     1    1    6 ar
     2    1    2 ar
     3    1   19 1
     4    2    3 ar
     5    2   20 1
     6    3    4 ar
     7    3   18 1
     8    4    5 ar
     9    4   21 1
    10    5    6 ar
    11    5   22 1
    12    6    7 1
    13    7   11 1
    14    7    8 2
    15    8    9 1
    16    9   10 2
    17    9   12 1
    18   10   11 1
    19   10   23 1
    20   12   13 1
    21   12   24 1
    22   12   25 1
    23   13   14 1
    24   13   26 1
    25   13   34 1
    26   14   15 1
    27   14   27 1
    28   14   28 1
    29   15   17 1
    30   15   16 1
    31   15   29 1
    32   16   17 1
    33   16   30 1
    34   16   31 1
    35   17   32 1
    36   17   33 1
@<TRIPOS>MOLECULE
ZINC35163451
   39    40     0     0     0
SMALL
USER_CHARGES

@<TRIPOS>ATOM
      1 C1         -0.0187    1.5258    0.0104 C.3       1 <0>        -0.1604
      2 C2          0.0021   -0.0041    0.0020 C.3       1 <0>        -0.0902
      3 C3          0.7421   -0.5109    1.2415 C.3       1 <0>        -0.1547
      4 C4         -1.4333   -0.5336    0.0129 C.3       1 <0>        -0.1460
      5 C5         -2.1352   -0.1312   -1.2857 C.3       1 <0>        -0.0128
      6 N1         -3.5134   -0.6397   -1.2753 N.4       1 <0>        -0.5080
      7 C6         -4.1873   -0.2533   -2.5220 C.3       1 <0>         0.0780
      8 C7         -5.6011   -0.7749   -2.5113 C.2       1 <0>        -0.0086
      9 C8         -6.6192    0.0262   -2.0998 C.2       1 <0>        -0.1816
     10 S1         -8.0099   -1.0814   -2.2940 S.3       1 <0>         0.0968
     11 C9         -7.0859   -2.4868   -2.9006 C.2       1 <0>         0.1839
     12 N2         -5.8521   -2.0018   -2.9046 N.2       1 <0>        -0.5077
     13 C10        -7.5686   -3.8271   -3.2964 C.ar      1 <0>        -0.0548
     14 C11        -6.6654   -4.7930   -3.7426 C.ar      1 <0>        -0.0331
     15 C12        -7.1209   -6.0417   -4.1106 C.ar      1 <0>        -0.1555
     16 C13        -8.4728   -6.3378   -4.0385 C.ar      1 <0>         0.1391
     17 C14        -9.3739   -5.3823   -3.5962 C.ar      1 <0>        -0.1499
     18 C15        -8.9282   -4.1325   -3.2198 C.ar      1 <0>        -0.0533
     19 F1         -8.9140   -7.5622   -4.4011 F         1 <0>        -0.1240
     20 H1          1.0039    1.9031    0.0027 H         1 <0>         0.0686
     21 H2         -0.5459    1.8868   -0.8726 H         1 <0>         0.0541
     22 H3         -0.5289    1.8773    0.9072 H         1 <0>         0.0615
     23 H4          0.5123   -0.3556   -0.8948 H         1 <0>         0.0815
     24 H5          0.2319   -0.1594    2.1383 H         1 <0>         0.0601
     25 H6          0.7568   -1.6008    1.2356 H         1 <0>         0.0600
     26 H7          1.7647   -0.1336    1.2338 H         1 <0>         0.0674
     27 H8         -1.4190   -1.6203    0.0965 H         1 <0>         0.0880
     28 H9         -1.9701   -0.1109    0.8621 H         1 <0>         0.0878
     29 H10        -2.1495    0.9555   -1.3693 H         1 <0>         0.1346
     30 H11        -1.5984   -0.5539   -2.1349 H         1 <0>         0.1338
     31 H12        -3.5002   -1.6456   -1.1979 H         1 <0>         0.4309
     32 H13        -4.2016    0.8334   -2.6056 H         1 <0>         0.1457
     33 H14        -3.6505   -0.6760   -3.3713 H         1 <0>         0.1453
     34 H15        -6.5949    1.0482   -1.7516 H         1 <0>         0.2107
     35 H16        -5.6117   -4.5630   -3.7998 H         1 <0>         0.1454
     36 H17        -6.4229   -6.7899   -4.4560 H         1 <0>         0.1502
     37 H18       -10.4264   -5.6181   -3.5419 H         1 <0>         0.1519
     38 H19        -9.6306   -3.3902   -2.8707 H         1 <0>         0.1394
     39 H20        -4.0103   -0.2484   -0.4891 H         1 <0>         0.4261
@<TRIPOS>BOND
     1    1    2 1
     2    1   20 1
     3    1   21 1
     4    1   22 1
     5    2    3 1
     6    2    4 1
     7    2   23 1
     8    3   24 1
     9    3   25 1
    10    3   26 1
    11    4    5 1
    12    4   27 1
    13    4   28 1
    14    5    6 1
    15    5   29 1
    16    5   30 1
    17    6    7 1
    18    6   31 1
    19    6   39 1
    20    7    8 1
    21    7   32 1
    22    7   33 1
    23    8   12 1
    24    8    9 2
    25    9   10 1
    26    9   34 1
    27   10   11 1
    28   11   12 2
    29   11   13 1
    30   13   18 ar
    31   13   14 ar
    32   14   15 ar
    33   14   35 1
    34   15   16 ar
    35   15   36 1
    36   16   17 ar
    37   16   19 1
    38   17   18 ar
    39   17   37 1
    40   18   38 1
@<TRIPOS>MOLECULE
ZINC35163433
   37    39     0     0     0
SMALL
USER_CHARGES

@<TRIPOS>ATOM
      1 C1         -0.0167    1.3781    0.0096 C.ar      1 <0>        -0.0822
      2 C2          1.1709    2.0855    0.0021 C.ar      1 <0>        -0.1146
      3 C3          2.3773    1.4107   -0.0130 C.ar      1 <0>        -0.0920
      4 C4          2.3960    0.0285   -0.0201 C.ar      1 <0>        -0.1685
      5 C5          1.2084   -0.6789   -0.0117 C.ar      1 <0>        -0.0930
      6 C6          0.0021   -0.0041    0.0020 C.ar      1 <0>        -0.1151
      7 C7          3.7112   -0.7071   -0.0376 C.3       1 <0>         0.0470
      8 N1          4.1530   -0.9531    1.3416 N.4       1 <0>        -0.5072
      9 C8          5.4350   -1.6702    1.3246 C.3       1 <0>         0.0769
     10 C9          5.8883   -1.9225    2.7395 C.2       1 <0>        -0.0078
     11 C10         5.6093   -3.1083    3.3425 C.2       1 <0>        -0.1813
     12 S1          6.3617   -2.8493    4.9442 S.3       1 <0>         0.0958
     13 C11         6.9641   -1.1941    4.6366 C.2       1 <0>         0.1837
     14 N2          6.5578   -0.9996    3.3898 N.2       1 <0>        -0.5072
     15 C12         7.7172   -0.2885    5.5302 C.ar      1 <0>        -0.0544
     16 C13         8.0898    0.9816    5.0876 C.ar      1 <0>        -0.0331
     17 C14         8.7923    1.8224    5.9252 C.ar      1 <0>        -0.1555
     18 C15         9.1287    1.4079    7.2041 C.ar      1 <0>         0.1388
     19 C16         8.7613    0.1477    7.6485 C.ar      1 <0>        -0.1500
     20 C17         8.0532   -0.6986    6.8212 C.ar      1 <0>        -0.0535
     21 F1          9.8178    2.2351    8.0203 F         1 <0>        -0.1242
     22 H1         -0.9591    1.9053    0.0259 H         1 <0>         0.1361
     23 H2          1.1563    3.1654    0.0076 H         1 <0>         0.1364
     24 H3          3.3051    1.9634   -0.0196 H         1 <0>         0.1319
     25 H4          1.2231   -1.7588   -0.0176 H         1 <0>         0.1316
     26 H5         -0.9258   -0.5567    0.0082 H         1 <0>         0.1362
     27 H6          3.5884   -1.6586   -0.5549 H         1 <0>         0.1394
     28 H7          4.4573   -0.1052   -0.5563 H         1 <0>         0.1395
     29 H8          4.2667   -0.0723    1.8205 H         1 <0>         0.4305
     30 H9          5.3122   -2.6217    0.8073 H         1 <0>         0.1467
     31 H10         6.1811   -1.0682    0.8060 H         1 <0>         0.1460
     32 H11         5.0797   -3.9685    2.9604 H         1 <0>         0.2108
     33 H12         7.8287    1.3053    4.0909 H         1 <0>         0.1454
     34 H13         9.0811    2.8055    5.5837 H         1 <0>         0.1501
     35 H14         9.0259   -0.1704    8.6461 H         1 <0>         0.1518
     36 H15         7.7631   -1.6786    7.1702 H         1 <0>         0.1394
     37 H16         3.4623   -1.5103    1.8218 H         1 <0>         0.4255
@<TRIPOS>BOND
     1    1    6 ar
     2    1    2 ar
     3    1   22 1
     4    2    3 ar
     5    2   23 1
     6    3    4 ar
     7    3   24 1
     8    4    5 ar
     9    4    7 1
    10    5    6 ar
    11    5   25 1
    12    6   26 1
    13    7    8 1
    14    7   27 1
    15    7   28 1
    16    8    9 1
    17    8   29 1
    18    8   37 1
    19    9   10 1
    20    9   30 1
    21    9   31 1
    22   10   14 1
    23   10   11 2
    24   11   12 1
    25   11   32 1
    26   12   13 1
    27   13   14 2
    28   13   15 1
    29   15   20 ar
    30   15   16 ar
    31   16   17 ar
    32   16   33 1
    33   17   18 ar
    34   17   34 1
    35   18   19 ar
    36   18   21 1
    37   19   20 ar
    38   19   35 1
    39   20   36 1
@<TRIPOS>MOLECULE
ZINC35163422
   44    45     0     0     0
SMALL
USER_CHARGES

@<TRIPOS>ATOM
      1 C1          0.1284    1.4492    0.2097 C.3       1 <0>        -0.1880
      2 C2          0.0190   -0.0668    0.0349 C.3       1 <0>        -0.0157
      3 N1          0.5762   -0.4508   -1.2689 N.4       1 <0>        -0.3842
      4 C3          2.0192   -0.1759   -1.2850 C.3       1 <0>        -0.0136
      5 C4          2.5730   -0.4396   -2.6866 C.3       1 <0>        -0.1888
      6 C5          0.3482   -1.8842   -1.4959 C.3       1 <0>        -0.0135
      7 C6         -1.1545   -2.1508   -1.6035 C.3       1 <0>         0.0322
      8 N2         -1.3825   -3.5841   -1.8305 N.3       1 <0>        -0.6769
      9 C7         -2.8176   -3.8782   -1.9392 C.3       1 <0>         0.1354
     10 C8         -3.0117   -5.3545   -2.1711 C.2       1 <0>         0.0468
     11 C9         -3.2579   -6.1820   -1.1212 C.2       1 <0>        -0.1781
     12 S1         -3.3958   -7.7531   -1.9645 S.3       1 <0>         0.0399
     13 C10        -3.1112   -7.1379   -3.6190 C.2       1 <0>         0.1625
     14 N3         -2.9487   -5.8427   -3.3879 N.2       1 <0>        -0.5011
     15 C11        -3.0728   -7.8745   -4.9004 C.ar      1 <0>        -0.0372
     16 C12        -2.8255   -7.1929   -6.0928 C.ar      1 <0>        -0.0399
     17 C13        -2.7909   -7.8848   -7.2854 C.ar      1 <0>        -0.1550
     18 C14        -3.0016   -9.2545   -7.3010 C.ar      1 <0>         0.1271
     19 C15        -3.2475   -9.9362   -6.1197 C.ar      1 <0>        -0.1495
     20 C16        -3.2781   -9.2549   -4.9210 C.ar      1 <0>        -0.0591
     21 F1         -2.9675   -9.9274   -8.4719 F         1 <0>        -0.1287
     22 H1          1.1790    1.7329    0.2727 H         1 <0>         0.0811
     23 H2         -0.3320    1.9475   -0.6434 H         1 <0>         0.0793
     24 H3         -0.3838    1.7474    1.1245 H         1 <0>         0.1066
     25 H4          0.5754   -0.5652    0.8288 H         1 <0>         0.1312
     26 H5         -1.0286   -0.3636    0.0840 H         1 <0>         0.1308
     27 H6          2.1936    0.8657   -1.0153 H         1 <0>         0.1330
     28 H7          2.5208   -0.8258   -0.5679 H         1 <0>         0.1303
     29 H8          2.4989   -1.5034   -2.9124 H         1 <0>         0.0804
     30 H9          1.9971    0.1280   -3.4175 H         1 <0>         0.0792
     31 H10         3.6177   -0.1312   -2.7284 H         1 <0>         0.1068
     32 H11         0.8383   -2.1880   -2.4209 H         1 <0>         0.1311
     33 H12         0.7596   -2.4539   -0.6626 H         1 <0>         0.1395
     34 H13        -1.6446   -1.8469   -0.6785 H         1 <0>         0.0959
     35 H14        -1.5658   -1.5811   -2.4368 H         1 <0>         0.0543
     36 H15        -0.8848   -3.9045   -2.6476 H         1 <0>         0.3553
     37 H16        -3.3192   -3.5863   -1.0165 H         1 <0>         0.0945
     38 H17        -3.2405   -3.3205   -2.7748 H         1 <0>         0.0567
     39 H18        -3.3456   -5.9539   -0.0692 H         1 <0>         0.2009
     40 H19        -2.6620   -6.1254   -6.0818 H         1 <0>         0.1436
     41 H20        -2.5996   -7.3583   -8.2087 H         1 <0>         0.1464
     42 H21        -3.4110  -11.0036   -6.1374 H         1 <0>         0.1487
     43 H22        -3.4651   -9.7878   -4.0004 H         1 <0>         0.1387
     44 H23         0.1244    0.0811   -1.9976 H         1 <0>         0.4211
@<TRIPOS>BOND
     1    1    2 1
     2    1   22 1
     3    1   23 1
     4    1   24 1
     5    2    3 1
     6    2   25 1
     7    2   26 1
     8    3    4 1
     9    3    6 1
    10    3   44 1
    11    4    5 1
    12    4   27 1
    13    4   28 1
    14    5   29 1
    15    5   30 1
    16    5   31 1
    17    6    7 1
    18    6   32 1
    19    6   33 1
    20    7    8 1
    21    7   34 1
    22    7   35 1
    23    8    9 1
    24    8   36 1
    25    9   10 1
    26    9   37 1
    27    9   38 1
    28   10   14 1
    29   10   11 2
    30   11   12 1
    31   11   39 1
    32   12   13 1
    33   13   14 2
    34   13   15 1
    35   15   20 ar
    36   15   16 ar
    37   16   17 ar
    38   16   40 1
    39   17   18 ar
    40   17   41 1
    41   18   19 ar
    42   18   21 1
    43   19   20 ar
    44   19   42 1
    45   20   43 1
@<TRIPOS>MOLECULE
ZINC35163422
   44    45     0     0     0
SMALL
USER_CHARGES

@<TRIPOS>ATOM
      1 C1         -1.2222   -1.7554   -0.1194 C.3       1 <0>        -0.1514
      2 C2          0.2039   -1.7939   -0.6723 C.3       1 <0>         0.0437
      3 N1          0.5447   -0.4823   -1.2394 N.3       1 <0>        -0.5308
      4 C3          1.9952   -0.3532   -1.4326 C.3       1 <0>         0.0425
      5 C4          2.6931   -0.3534   -0.0711 C.3       1 <0>        -0.1557
      6 C5         -0.1768   -0.2493   -2.4976 C.3       1 <0>         0.0218
      7 C6         -0.1175    1.2380   -2.8517 C.3       1 <0>        -0.0082
      8 N2         -0.8610    1.4751   -4.0962 N.4       1 <0>        -0.5063
      9 C7         -0.8040    2.9031   -4.4362 C.3       1 <0>         0.0802
     10 C8         -1.5668    3.1464   -5.7129 C.2       1 <0>        -0.0090
     11 C9         -2.8646    3.5476   -5.6646 C.2       1 <0>        -0.1803
     12 S1         -3.2363    3.6733   -7.4095 S.3       1 <0>         0.0972
     13 C10        -1.6268    3.1791   -8.0112 C.2       1 <0>         0.1835
     14 N3         -0.9774    2.9765   -6.8733 N.2       1 <0>        -0.5077
     15 C11        -1.1475    3.0395   -9.4028 C.ar      1 <0>        -0.0546
     16 C12         0.1625    2.6292   -9.6544 C.ar      1 <0>        -0.0333
     17 C13         0.6045    2.5005  -10.9545 C.ar      1 <0>        -0.1556
     18 C14        -0.2495    2.7783  -12.0100 C.ar      1 <0>         0.1390
     19 C15        -1.5513    3.1861  -11.7657 C.ar      1 <0>        -0.1499
     20 C16        -2.0053    3.3119  -10.4695 C.ar      1 <0>        -0.0534
     21 F1          0.1887    2.6516  -13.2817 F         1 <0>        -0.1240
     22 H1         -1.2898   -0.9952    0.6588 H         1 <0>         0.0676
     23 H2         -1.9174   -1.5149   -0.9237 H         1 <0>         0.0498
     24 H3         -1.4754   -2.7289    0.3008 H         1 <0>         0.0681
     25 H4          0.8991   -2.0336    0.1322 H         1 <0>         0.0916
     26 H5          0.2717   -2.5547   -1.4498 H         1 <0>         0.0426
     27 H6          2.3586   -1.1912   -2.0273 H         1 <0>         0.0430
     28 H7          2.2109    0.5810   -1.9513 H         1 <0>         0.0740
     29 H8          2.3297    0.4847    0.5236 H         1 <0>         0.0672
     30 H9          2.4774   -1.2875    0.4476 H         1 <0>         0.0612
     31 H10         3.7693   -0.2575   -0.2144 H         1 <0>         0.0674
     32 H11         0.2856   -0.8313   -3.2948 H         1 <0>         0.0582
     33 H12        -1.2170   -0.5540   -2.3818 H         1 <0>         0.0985
     34 H13        -0.5626    1.8214   -2.0457 H         1 <0>         0.1431
     35 H14         0.9217    1.5382   -2.9864 H         1 <0>         0.1324
     36 H15        -0.4489    0.9351   -4.8423 H         1 <0>         0.4301
     37 H16        -1.2491    3.4865   -3.6302 H         1 <0>         0.1475
     38 H17         0.2351    3.2033   -4.5709 H         1 <0>         0.1454
     39 H18        -3.4963    3.7374   -4.8095 H         1 <0>         0.2112
     40 H19         0.8291    2.4131   -8.8326 H         1 <0>         0.1452
     41 H20         1.6181    2.1831  -11.1503 H         1 <0>         0.1501
     42 H21        -2.2127    3.4013  -12.5918 H         1 <0>         0.1519
     43 H22        -3.0214    3.6251  -10.2802 H         1 <0>         0.1395
     44 H23        -1.8229    1.1972   -3.9715 H         1 <0>         0.4267
@<TRIPOS>BOND
     1    1    2 1
     2    1   22 1
     3    1   23 1
     4    1   24 1
     5    2    3 1
     6    2   25 1
     7    2   26 1
     8    3    4 1
     9    3    6 1
    10    4    5 1
    11    4   27 1
    12    4   28 1
    13    5   29 1
    14    5   30 1
    15    5   31 1
    16    6    7 1
    17    6   32 1
    18    6   33 1
    19    7    8 1
    20    7   34 1
    21    7   35 1
    22    8    9 1
    23    8   36 1
    24    8   44 1
    25    9   10 1
    26    9   37 1
    27    9   38 1
    28   10   14 1
    29   10   11 2
    30   11   12 1
    31   11   39 1
    32   12   13 1
    33   13   14 2
    34   13   15 1
    35   15   20 ar
    36   15   16 ar
    37   16   17 ar
    38   16   40 1
    39   17   18 ar
    40   17   41 1
    41   18   19 ar
    42   18   21 1
    43   19   20 ar
    44   19   42 1
    45   20   43 1
@<TRIPOS>MOLECULE
ZINC35163421
   39    40     0     0     0
SMALL
USER_CHARGES

@<TRIPOS>ATOM
      1 C1         -0.0187    1.5258    0.0104 C.3       1 <0>        -0.1587
      2 C2          0.0021   -0.0041    0.0020 C.3       1 <0>        -0.1260
      3 C3          0.7421   -0.5109    1.2415 C.3       1 <0>        -0.1185
      4 C4          0.7628   -2.0407    1.2331 C.3       1 <0>        -0.1502
      5 C5          1.5028   -2.5476    2.4727 C.3       1 <0>        -0.0096
      6 N1          1.5227   -4.0164    2.4646 N.4       1 <0>        -0.5083
      7 C6          2.2332   -4.5030    3.6547 C.3       1 <0>         0.0780
      8 C7          2.2537   -6.0099    3.6464 C.2       1 <0>        -0.0088
      9 C8          3.3265   -6.6734    3.1400 C.2       1 <0>        -0.1816
     10 S1          2.8121   -8.3686    3.3854 S.3       1 <0>         0.0967
     11 C9          1.2284   -8.0094    4.1337 C.2       1 <0>         0.1841
     12 N2          1.2379   -6.6838    4.1331 N.2       1 <0>        -0.5079
     13 C10         0.1904   -8.9402    4.6257 C.ar      1 <0>        -0.0549
     14 C11        -0.9915   -8.4431    5.1768 C.ar      1 <0>        -0.0331
     15 C12        -1.9565   -9.3157    5.6343 C.ar      1 <0>        -0.1555
     16 C13        -1.7541  -10.6840    5.5478 C.ar      1 <0>         0.1392
     17 C14        -0.5823  -11.1829    5.0014 C.ar      1 <0>        -0.1499
     18 C15         0.3865  -10.3191    4.5353 C.ar      1 <0>        -0.0533
     19 F1         -2.7022  -11.5345    5.9982 F         1 <0>        -0.1240
     20 H1          1.0039    1.9031    0.0027 H         1 <0>         0.0571
     21 H2         -0.5459    1.8868   -0.8726 H         1 <0>         0.0613
     22 H3         -0.5289    1.8773    0.9072 H         1 <0>         0.0572
     23 H4         -1.0205   -0.3814    0.0098 H         1 <0>         0.0656
     24 H5          0.5123   -0.3556   -0.8948 H         1 <0>         0.0654
     25 H6          1.7647   -0.1336    1.2338 H         1 <0>         0.0742
     26 H7          0.2319   -0.1594    2.1383 H         1 <0>         0.0744
     27 H8         -0.2598   -2.4180    1.2409 H         1 <0>         0.0871
     28 H9          1.2730   -2.3923    0.3363 H         1 <0>         0.0870
     29 H10         2.5254   -2.1703    2.4649 H         1 <0>         0.1333
     30 H11         0.9926   -2.1961    3.3695 H         1 <0>         0.1334
     31 H12         0.5761   -4.3657    2.4717 H         1 <0>         0.4311
     32 H13         3.2558   -4.1258    3.6470 H         1 <0>         0.1459
     33 H14         1.7230   -4.1515    4.5515 H         1 <0>         0.1453
     34 H15         4.2371   -6.2845    2.7087 H         1 <0>         0.2107
     35 H16        -1.1499   -7.3770    5.2453 H         1 <0>         0.1453
     36 H17        -2.8715   -8.9321    6.0610 H         1 <0>         0.1502
     37 H18        -0.4294  -12.2500    4.9364 H         1 <0>         0.1520
     38 H19         1.2973  -10.7089    4.1052 H         1 <0>         0.1394
     39 H20         1.9950   -4.3418    1.6344 H         1 <0>         0.4262
@<TRIPOS>BOND
     1    1    2 1
     2    1   20 1
     3    1   21 1
     4    1   22 1
     5    2    3 1
     6    2   23 1
     7    2   24 1
     8    3    4 1
     9    3   25 1
    10    3   26 1
    11    4    5 1
    12    4   27 1
    13    4   28 1
    14    5    6 1
    15    5   29 1
    16    5   30 1
    17    6    7 1
    18    6   31 1
    19    6   39 1
    20    7    8 1
    21    7   32 1
    22    7   33 1
    23    8   12 1
    24    8    9 2
    25    9   10 1
    26    9   34 1
    27   10   11 1
    28   11   12 2
    29   11   13 1
    30   13   18 ar
    31   13   14 ar
    32   14   15 ar
    33   14   35 1
    34   15   16 ar
    35   15   36 1
    36   16   17 ar
    37   16   19 1
    38   17   18 ar
    39   17   37 1
    40   18   38 1
@<TRIPOS>MOLECULE
ZINC35154803
   38    39     0     0     0
SMALL
USER_CHARGES

@<TRIPOS>ATOM
      1 C1         -0.0178    1.4648    0.0101 C.3       1 <0>        -0.0523
      2 N1          0.0021   -0.0041    0.0020 N.4       1 <0>        -0.3853
      3 C2          0.7126   -0.4907    1.1921 C.3       1 <0>        -0.0463
      4 C3         -1.3761   -0.5125    0.0124 C.3       1 <0>        -0.0109
      5 C4         -2.0780   -0.1101   -1.2861 C.3       1 <0>         0.0308
      6 N2         -3.4562   -0.6186   -1.2757 N.3       1 <0>        -0.6775
      7 C5         -4.1625   -0.2504   -2.5100 C.3       1 <0>         0.1355
      8 C6         -5.5696   -0.7879   -2.4630 C.2       1 <0>         0.0464
      9 C7         -6.5873    0.0050   -2.0350 C.2       1 <0>        -0.1781
     10 S1         -7.9691   -1.1200   -2.1886 S.3       1 <0>         0.0404
     11 C8         -7.0429   -2.5198   -2.8046 C.2       1 <0>         0.1627
     12 N3         -5.8152   -2.0208   -2.8404 N.2       1 <0>        -0.5013
     13 C9         -7.5188   -3.8688   -3.1784 C.ar      1 <0>        -0.0374
     14 C10        -6.6148   -4.8281   -3.6370 C.ar      1 <0>        -0.0398
     15 C11        -7.0640   -6.0849   -3.9845 C.ar      1 <0>        -0.1550
     16 C12        -8.4105   -6.3958   -3.8793 C.ar      1 <0>         0.1272
     17 C13        -9.3123   -5.4469   -3.4245 C.ar      1 <0>        -0.1495
     18 C14        -8.8728   -4.1890   -3.0685 C.ar      1 <0>        -0.0590
     19 F1         -8.8455   -7.6281   -4.2218 F         1 <0>        -0.1287
     20 H1          1.0047    1.8421    0.0024 H         1 <0>         0.1254
     21 H2         -0.5450    1.8259   -0.8730 H         1 <0>         0.1236
     22 H3         -0.5280    1.8163    0.9069 H         1 <0>         0.1244
     23 H4          0.2024   -0.1392    2.0889 H         1 <0>         0.1233
     24 H5          0.7273   -1.5806    1.1861 H         1 <0>         0.1235
     25 H6          1.7352   -0.1134    1.1844 H         1 <0>         0.1258
     26 H7         -1.3618   -1.5992    0.0961 H         1 <0>         0.1297
     27 H8         -1.9129   -0.0898    0.8617 H         1 <0>         0.1397
     28 H9         -2.0923    0.9766   -1.3697 H         1 <0>         0.0965
     29 H10        -1.5412   -0.5328   -2.1354 H         1 <0>         0.0546
     30 H11        -3.4720   -1.6175   -1.1343 H         1 <0>         0.3555
     31 H12        -4.1912    0.8354   -2.6021 H         1 <0>         0.0946
     32 H13        -3.6401   -0.6741   -3.3677 H         1 <0>         0.0568
     33 H14        -6.5670    1.0301   -1.6957 H         1 <0>         0.2009
     34 H15        -5.5654   -4.5866   -3.7200 H         1 <0>         0.1436
     35 H16        -6.3654   -6.8280   -4.3395 H         1 <0>         0.1465
     36 H17       -10.3606   -5.6942   -3.3444 H         1 <0>         0.1487
     37 H18        -9.5756   -3.4518   -2.7096 H         1 <0>         0.1388
     38 H19         0.4743   -0.3295   -0.8281 H         1 <0>         0.4264
@<TRIPOS>BOND
     1    1    2 1
     2    1   20 1
     3    1   21 1
     4    1   22 1
     5    2    3 1
     6    2    4 1
     7    2   38 1
     8    3   23 1
     9    3   24 1
    10    3   25 1
    11    4    5 1
    12    4   26 1
    13    4   27 1
    14    5    6 1
    15    5   28 1
    16    5   29 1
    17    6    7 1
    18    6   30 1
    19    7    8 1
    20    7   31 1
    21    7   32 1
    22    8   12 1
    23    8    9 2
    24    9   10 1
    25    9   33 1
    26   10   11 1
    27   11   12 2
    28   11   13 1
    29   13   18 ar
    30   13   14 ar
    31   14   15 ar
    32   14   34 1
    33   15   16 ar
    34   15   35 1
    35   16   17 ar
    36   16   19 1
    37   17   18 ar
    38   17   36 1
    39   18   37 1
@<TRIPOS>MOLECULE
ZINC35154803
   38    39     0     0     0
SMALL
USER_CHARGES

@<TRIPOS>ATOM
      1 C1         -0.0178    1.4648    0.0101 C.3       1 <0>         0.0195
      2 N1          0.0021   -0.0041    0.0020 N.3       1 <0>        -0.5380
      3 C2          0.7859   -0.5261    1.1294 C.3       1 <0>         0.0084
      4 C3         -1.3620   -0.5491    0.0121 C.3       1 <0>         0.0240
      5 C4         -1.3110   -2.0562   -0.2470 C.3       1 <0>        -0.0098
      6 N2         -2.6751   -2.6012   -0.2369 N.4       1 <0>        -0.5061
      7 C5         -2.6261   -4.0482   -0.4856 C.3       1 <0>         0.0801
      8 C6         -4.0255   -4.6073   -0.4753 C.2       1 <0>        -0.0093
      9 C7         -4.7049   -4.7632   -1.6422 C.2       1 <0>        -0.1801
     10 S1         -6.2470   -5.4386   -1.0385 S.3       1 <0>         0.0975
     11 C8         -5.8195   -5.4396    0.6976 C.2       1 <0>         0.1836
     12 N3         -4.5882   -4.9497    0.6601 N.2       1 <0>        -0.5079
     13 C9         -6.6212   -5.8747    1.8612 C.ar      1 <0>        -0.0547
     14 C10        -6.0920   -5.7841    3.1494 C.ar      1 <0>        -0.0332
     15 C11        -6.8441   -6.1914    4.2313 C.ar      1 <0>        -0.1556
     16 C12        -8.1229   -6.6905    4.0410 C.ar      1 <0>         0.1391
     17 C13        -8.6531   -6.7826    2.7639 C.ar      1 <0>        -0.1499
     18 C14        -7.9119   -6.3722    1.6756 C.ar      1 <0>        -0.0533
     19 F1         -8.8551   -7.0890    5.1041 F         1 <0>        -0.1240
     20 H1          1.0047    1.8421    0.0024 H         1 <0>         0.0838
     21 H2         -0.5450    1.8259   -0.8730 H         1 <0>         0.0769
     22 H3         -0.5280    1.8163    0.9069 H         1 <0>         0.0363
     23 H4          0.3442   -0.1877    2.0667 H         1 <0>         0.0373
     24 H5          0.7843   -1.6157    1.0994 H         1 <0>         0.0698
     25 H6          1.8110   -0.1623    1.0586 H         1 <0>         0.0849
     26 H7         -1.8206   -0.3627    0.9832 H         1 <0>         0.0576
     27 H8         -1.9520   -0.0663   -0.7669 H         1 <0>         0.0976
     28 H9         -0.8524   -2.2426   -1.2181 H         1 <0>         0.1436
     29 H10        -0.7210   -2.5390    0.5321 H         1 <0>         0.1333
     30 H11        -3.0996   -2.4287    0.6621 H         1 <0>         0.4304
     31 H12        -2.1675   -4.2346   -1.4567 H         1 <0>         0.1478
     32 H13        -2.0361   -4.5310    0.2934 H         1 <0>         0.1454
     33 H14        -4.3986   -4.5405   -2.6536 H         1 <0>         0.2114
     34 H15        -5.0953   -5.3960    3.2988 H         1 <0>         0.1452
     35 H16        -6.4356   -6.1217    5.2287 H         1 <0>         0.1501
     36 H17        -9.6502   -7.1722    2.6210 H         1 <0>         0.1520
     37 H18        -8.3278   -6.4399    0.6812 H         1 <0>         0.1395
     38 H19        -3.2212   -2.1543   -0.9580 H         1 <0>         0.4272
@<TRIPOS>BOND
     1    1    2 1
     2    1   20 1
     3    1   21 1
     4    1   22 1
     5    2    3 1
     6    2    4 1
     7    3   23 1
     8    3   24 1
     9    3   25 1
    10    4    5 1
    11    4   26 1
    12    4   27 1
    13    5    6 1
    14    5   28 1
    15    5   29 1
    16    6    7 1
    17    6   30 1
    18    6   38 1
    19    7    8 1
    20    7   31 1
    21    7   32 1
    22    8   12 1
    23    8    9 2
    24    9   10 1
    25    9   33 1
    26   10   11 1
    27   11   12 2
    28   11   13 1
    29   13   18 ar
    30   13   14 ar
    31   14   15 ar
    32   14   34 1
    33   15   16 ar
    34   15   35 1
    35   16   17 ar
    36   16   19 1
    37   17   18 ar
    38   17   36 1
    39   18   37 1
@<TRIPOS>MOLECULE
ZINC11851502
   34    36     0     0     0
SMALL
USER_CHARGES
[4-[4-(2,5-dichlorophenyl)thiazol-2-yl]phenyl]methanamine
@<TRIPOS>ATOM
      1 C1         -1.2159    1.7486   -0.1206 C.ar      1 <0>        -0.0866
      2 C2         -0.0127    1.0744   -0.0833 C.ar      1 <0>        -0.0953
      3 C3          1.1853    1.7900   -0.0993 C.ar      1 <0>         0.0382
      4 C4          1.1576    3.1843   -0.1477 C.ar      1 <0>        -0.0730
      5 C5         -0.0523    3.8466   -0.1793 C.ar      1 <0>        -0.0877
      6 C6         -1.2365    3.1313   -0.1636 C.ar      1 <0>        -0.1633
      7 C7         -2.5544    3.8612   -0.1994 C.3       1 <0>         0.0513
      8 C8          2.4785    1.0737   -0.0657 C.2       1 <0>         0.1144
      9 N1          3.7078    1.5638   -0.0738 N.2       1 <0>        -0.4543
     10 C9          4.7624    0.7714   -0.0392 C.2       1 <0>         0.0916
     11 C10         4.5822   -0.5869    0.0060 C.2       1 <0>        -0.1598
     12 S1          2.7966   -0.6840    0.0046 S.3       1 <0>         0.0556
     13 C11         6.1304    1.3450   -0.0497 C.ar      1 <0>        -0.0097
     14 C12         7.0839    0.8963    0.8621 C.ar      1 <0>        -0.0818
     15 C13         8.3560    1.4339    0.8478 C.ar      1 <0>        -0.0311
     16 C14         8.6845    2.4173   -0.0699 C.ar      1 <0>        -0.0862
     17 C15         7.7424    2.8664   -0.9769 C.ar      1 <0>        -0.0974
     18 C16         6.4687    2.3313   -0.9758 C.ar      1 <0>        -0.0054
     19 Cl1         5.2894    2.8907   -2.1203 Cl        1 <0>        -0.0477
     20 Cl2         9.5451    0.8761    1.9830 Cl        1 <0>        -0.0475
     21 H1         -2.1437    1.1958   -0.1123 H         1 <0>         0.1407
     22 H2          0.0020   -0.0048   -0.0463 H         1 <0>         0.1398
     23 H3          2.0813    3.7438   -0.1606 H         1 <0>         0.1485
     24 H4         -0.0751    4.9257   -0.2167 H         1 <0>         0.1403
     25 H5         -3.3077    3.2771    0.3292 H         1 <0>         0.1401
     26 H6         -2.4446    4.8331    0.2817 H         1 <0>         0.1430
     27 H7         -3.8537    4.5377   -1.6460 H         1 <0>         0.4404
     28 H8         -2.2605    4.5333   -2.1230 H         1 <0>         0.4371
     29 H9          5.3156   -1.3789    0.0382 H         1 <0>         0.2094
     30 H10         6.8285    0.1298    1.5788 H         1 <0>         0.1456
     31 H11         9.6805    2.8350   -0.0775 H         1 <0>         0.1493
     32 H12         8.0040    3.6336   -1.6905 H         1 <0>         0.1491
     33 N2         -2.9740    4.0259   -1.6023 N.4       1 <0>        -0.6464
     34 H13        -3.1036    3.1000   -2.0267 H         1 <0>         0.4389
@<TRIPOS>BOND
     1    1    6 ar
     2    1    2 ar
     3    1   21 1
     4    2    3 ar
     5    2   22 1
     6    3    4 ar
     7    3    8 1
     8    4    5 ar
     9    4   23 1
    10    5    6 ar
    11    5   24 1
    12    6    7 1
    13    7   25 1
    14    7   26 1
    15    7   33 1
    16    8   12 1
    17    8    9 2
    18    9   10 1
    19   10   11 2
    20   10   13 1
    21   11   12 1
    22   11   29 1
    23   13   18 ar
    24   13   14 ar
    25   14   15 ar
    26   14   30 1
    27   15   16 ar
    28   15   20 1
    29   16   17 ar
    30   16   31 1
    31   17   18 ar
    32   17   32 1
    33   18   19 1
    34   27   33 1
    35   28   33 1
    36   33   34 1
@<TRIPOS>MOLECULE
ZINC49938095
   42    43     0     0     0
SMALL
USER_CHARGES

@<TRIPOS>ATOM
      1 C1         -0.0187    1.5258    0.0104 C.3       1 <0>        -0.1930
      2 C2          0.0021   -0.0041    0.0020 C.3       1 <0>        -0.0115
      3 N1          0.7126   -0.4907    1.1921 N.4       1 <0>        -0.3815
      4 C3         -0.0399   -0.1189    2.3978 C.3       1 <0>        -0.0665
      5 C4          0.8373   -1.9528    1.1242 C.3       1 <0>        -0.0375
      6 C5          1.6842   -2.4475    2.2985 C.3       1 <0>        -0.0364
      7 N2          1.8089   -3.9096    2.2306 N.4       1 <0>        -0.5038
      8 C6          2.6220   -4.3846    3.3581 C.3       1 <0>         0.0809
      9 C7          2.7499   -5.8845    3.2885 C.2       1 <0>        -0.0180
     10 C8          3.8356   -6.4484    2.6959 C.2       1 <0>        -0.1858
     11 S1          3.4596   -8.1847    2.9022 S.3       1 <0>         0.1203
     12 C9          1.9016   -7.9705    3.7529 C.2       1 <0>         0.1934
     13 N3          1.8159   -6.6486    3.8047 N.2       1 <0>        -0.5162
     14 C10         0.9641   -8.9925    4.2654 C.ar      1 <0>        -0.0645
     15 C11        -0.2155   -8.6041    4.9022 C.ar      1 <0>        -0.0317
     16 C12        -1.0865   -9.5614    5.3785 C.ar      1 <0>        -0.1569
     17 C13        -0.7920  -10.9070    5.2261 C.ar      1 <0>         0.1468
     18 C14         0.3780  -11.2981    4.5945 C.ar      1 <0>        -0.1487
     19 C15         1.2529  -10.3489    4.1090 C.ar      1 <0>        -0.0501
     20 F1         -1.6482  -11.8408    5.6952 F         1 <0>        -0.1200
     21 H1          1.0039    1.9031    0.0027 H         1 <0>         0.0848
     22 H2         -0.5459    1.8868   -0.8726 H         1 <0>         0.1154
     23 H3         -0.5289    1.8773    0.9072 H         1 <0>         0.0851
     24 H4         -1.0205   -0.3814    0.0098 H         1 <0>         0.1362
     25 H5          0.5123   -0.3556   -0.8948 H         1 <0>         0.1364
     26 H6          0.4873   -0.4799    3.2808 H         1 <0>         0.1244
     27 H7         -0.1324    0.9660    2.4481 H         1 <0>         0.1409
     28 H8         -1.0328   -0.5668    2.3589 H         1 <0>         0.1322
     29 H9         -0.1534   -2.4047    1.1749 H         1 <0>         0.1525
     30 H10         1.3171   -2.2334    0.1866 H         1 <0>         0.1533
     31 H11         2.6748   -1.9956    2.2478 H         1 <0>         0.1560
     32 H12         1.2044   -2.1669    3.2362 H         1 <0>         0.1549
     33 H13         0.8919   -4.3279    2.2776 H         1 <0>         0.4393
     34 H14         3.6126   -3.9327    3.3074 H         1 <0>         0.1516
     35 H15         2.1422   -4.1040    4.2957 H         1 <0>         0.1508
     36 H16         4.6886   -5.9782    2.2295 H         1 <0>         0.2108
     37 H17        -0.4456   -7.5557    5.0221 H         1 <0>         0.1432
     38 H18        -1.9996   -9.2620    5.8714 H         1 <0>         0.1514
     39 H19         0.6028  -12.3480    4.4783 H         1 <0>         0.1548
     40 H20         2.1620  -10.6548    3.6127 H         1 <0>         0.1401
     41 H21         1.6317   -0.0761    1.2281 H         1 <0>         0.4322
     42 H22         2.2530   -4.1694    1.3627 H         1 <0>         0.4346
@<TRIPOS>BOND
     1    1    2 1
     2    1   21 1
     3    1   22 1
     4    1   23 1
     5    2    3 1
     6    2   24 1
     7    2   25 1
     8    3    4 1
     9    3    5 1
    10    3   41 1
    11    4   26 1
    12    4   27 1
    13    4   28 1
    14    5    6 1
    15    5   29 1
    16    5   30 1
    17    6    7 1
    18    6   31 1
    19    6   32 1
    20    7    8 1
    21    7   33 1
    22    7   42 1
    23    8    9 1
    24    8   34 1
    25    8   35 1
    26    9   13 1
    27    9   10 2
    28   10   11 1
    29   10   36 1
    30   11   12 1
    31   12   13 2
    32   12   14 1
    33   14   19 ar
    34   14   15 ar
    35   15   16 ar
    36   15   37 1
    37   16   17 ar
    38   16   38 1
    39   17   18 ar
    40   17   20 1
    41   18   19 ar
    42   18   39 1
    43   19   40 1
@<TRIPOS>MOLECULE
ZINC49938095
   41    42     0     0     0
SMALL
USER_CHARGES

@<TRIPOS>ATOM
      1 C1         -0.0187    1.5258    0.0104 C.3       1 <0>        -0.1894
      2 C2          0.0021   -0.0041    0.0020 C.3       1 <0>        -0.0097
      3 N1         -1.3761   -0.5125    0.0124 N.4       1 <0>        -0.3843
      4 C3         -2.0500   -0.1262   -1.2343 C.3       1 <0>        -0.0573
      5 C4         -1.3568   -1.9771    0.1251 C.3       1 <0>        -0.0095
      6 C5         -2.7893   -2.4970    0.2614 C.3       1 <0>         0.0318
      7 N2         -2.7701   -3.9615    0.3741 N.3       1 <0>        -0.6776
      8 C6         -4.1314   -4.4972    0.5069 C.3       1 <0>         0.1358
      9 C7         -4.0716   -5.9988    0.6197 C.2       1 <0>         0.0463
     10 C8         -4.0740   -6.5901    1.8436 C.2       1 <0>        -0.1777
     11 S1         -3.9928   -8.3148    1.3771 S.3       1 <0>         0.0402
     12 C9         -3.9647   -8.0605   -0.3925 C.2       1 <0>         0.1623
     13 N3         -4.0226   -6.7380   -0.4638 N.2       1 <0>        -0.5013
     14 C10        -3.8999   -9.0571   -1.4828 C.ar      1 <0>        -0.0372
     15 C11        -3.8818   -8.6384   -2.8140 C.ar      1 <0>        -0.0400
     16 C12        -3.8214   -9.5721   -3.8272 C.ar      1 <0>        -0.1550
     17 C13        -3.7791  -10.9241   -3.5253 C.ar      1 <0>         0.1270
     18 C14        -3.7968  -11.3452   -2.2051 C.ar      1 <0>        -0.1494
     19 C15        -3.8509  -10.4195   -1.1841 C.ar      1 <0>        -0.0591
     20 F1         -3.7208  -11.8347   -4.5216 F         1 <0>        -0.1287
     21 H1          1.0039    1.9031    0.0027 H         1 <0>         0.1069
     22 H2         -0.5459    1.8868   -0.8726 H         1 <0>         0.0807
     23 H3         -0.5289    1.8773    0.9072 H         1 <0>         0.0808
     24 H4          0.5123   -0.3556   -0.8948 H         1 <0>         0.1290
     25 H5          0.5293   -0.3651    0.8851 H         1 <0>         0.1313
     26 H6         -3.0726   -0.5034   -1.2266 H         1 <0>         0.1237
     27 H7         -2.0643    0.9605   -1.3179 H         1 <0>         0.1269
     28 H8         -1.5132   -0.5489   -2.0836 H         1 <0>         0.1228
     29 H9         -0.8987   -2.4041   -0.7670 H         1 <0>         0.1285
     30 H10        -0.7802   -2.2663    1.0037 H         1 <0>         0.1403
     31 H11        -3.2475   -2.0699    1.1535 H         1 <0>         0.0958
     32 H12        -3.3660   -2.2077   -0.6172 H         1 <0>         0.0554
     33 H13        -4.5989   -4.0841    1.4006 H         1 <0>         0.0948
     34 H14        -4.7174   -4.2218   -0.3700 H         1 <0>         0.0564
     35 H15        -4.1135   -6.1425    2.8257 H         1 <0>         0.2011
     36 H16        -3.9154   -7.5851   -3.0504 H         1 <0>         0.1435
     37 H17        -3.8073   -9.2492   -4.8577 H         1 <0>         0.1464
     38 H18        -3.7637  -12.3999   -1.9752 H         1 <0>         0.1487
     39 H19        -3.8597  -10.7485   -0.1555 H         1 <0>         0.1388
     40 H20        -1.8730   -0.1212    0.7986 H         1 <0>         0.4256
     41 H21        -2.2924   -4.3783   -0.4109 H         1 <0>         0.3553
@<TRIPOS>BOND
     1    1    2 1
     2    1   21 1
     3    1   22 1
     4    1   23 1
     5    2    3 1
     6    2   24 1
     7    2   25 1
     8    3    4 1
     9    3    5 1
    10    3   40 1
    11    4   26 1
    12    4   27 1
    13    4   28 1
    14    5    6 1
    15    5   29 1
    16    5   30 1
    17    6    7 1
    18    6   31 1
    19    6   32 1
    20    7    8 1
    21    7   41 1
    22    8    9 1
    23    8   33 1
    24    8   34 1
    25    9   13 1
    26    9   10 2
    27   10   11 1
    28   10   35 1
    29   11   12 1
    30   12   13 2
    31   12   14 1
    32   14   19 ar
    33   14   15 ar
    34   15   16 ar
    35   15   36 1
    36   16   17 ar
    37   16   37 1
    38   17   18 ar
    39   17   20 1
    40   18   19 ar
    41   18   38 1
    42   19   39 1
@<TRIPOS>MOLECULE
ZINC54468061
   39    40     0     0     0
SMALL
USER_CHARGES

@<TRIPOS>ATOM
      1 C1         -0.0187    1.5258    0.0104 C.3       1 <0>        -0.1603
      2 C2          0.0021   -0.0041    0.0020 C.3       1 <0>        -0.1172
      3 C3         -1.4333   -0.5336    0.0129 C.3       1 <0>        -0.1174
      4 H1         -1.9701   -0.1109    0.8621 H         1 <0>         0.0944
      5 C4         -2.1352   -0.1312   -1.2857 C.3       1 <0>        -0.1721
      6 C5         -1.4133   -2.0590    0.1302 C.3       1 <0>        -0.0073
      7 N1         -2.7886   -2.5582    0.2611 N.4       1 <0>        -0.5087
      8 C6         -2.7694   -4.0227    0.3738 C.3       1 <0>         0.0776
      9 C7         -4.1803   -4.5348    0.5080 C.2       1 <0>        -0.0085
     10 C8         -4.8585   -4.9577   -0.5915 C.2       1 <0>        -0.1819
     11 S1         -6.4169   -5.4347    0.1452 S.3       1 <0>         0.0969
     12 C9         -5.9960   -5.0198    1.8327 C.2       1 <0>         0.1839
     13 N2         -4.7545   -4.5782    1.6875 N.2       1 <0>        -0.5075
     14 C10        -6.8111   -5.1415    3.0602 C.ar      1 <0>        -0.0548
     15 C11        -6.2851   -4.7492    4.2919 C.ar      1 <0>        -0.0331
     16 C12        -7.0497   -4.8649    5.4339 C.ar      1 <0>        -0.1555
     17 C13        -8.3380   -5.3701    5.3598 C.ar      1 <0>         0.1391
     18 C14        -8.8652   -5.7612    4.1393 C.ar      1 <0>        -0.1499
     19 C15        -8.1114   -5.6439    2.9904 C.ar      1 <0>        -0.0533
     20 F1         -9.0825   -5.4823    6.4816 F         1 <0>        -0.1240
     21 H2          1.0039    1.9031    0.0027 H         1 <0>         0.0668
     22 H3         -0.5459    1.8868   -0.8726 H         1 <0>         0.0616
     23 H4         -0.5289    1.8773    0.9072 H         1 <0>         0.0590
     24 H5          0.5123   -0.3556   -0.8948 H         1 <0>         0.0750
     25 H6          0.5293   -0.3651    0.8851 H         1 <0>         0.0741
     26 H7         -1.5984   -0.5539   -2.1349 H         1 <0>         0.0733
     27 H8         -3.1578   -0.5085   -1.2779 H         1 <0>         0.0503
     28 H9         -2.1495    0.9555   -1.3693 H         1 <0>         0.0860
     29 H10        -0.9551   -2.4861   -0.7619 H         1 <0>         0.1341
     30 H11        -0.8366   -2.3483    1.0088 H         1 <0>         0.1349
     31 H12        -3.2128   -2.1629    1.0869 H         1 <0>         0.4307
     32 H13        -2.3112   -4.4498   -0.5183 H         1 <0>         0.1460
     33 H14        -2.1927   -4.3120    1.2523 H         1 <0>         0.1458
     34 H15        -4.5437   -4.9951   -1.6239 H         1 <0>         0.2107
     35 H16        -5.2809   -4.3560    4.3508 H         1 <0>         0.1454
     36 H17        -6.6436   -4.5616    6.3875 H         1 <0>         0.1502
     37 H18        -9.8698   -6.1543    4.0871 H         1 <0>         0.1519
     38 H19        -8.5249   -5.9443    2.0390 H         1 <0>         0.1394
     39 H20        -3.3224   -2.2904   -0.5522 H         1 <0>         0.4243
@<TRIPOS>BOND
     1    1    2 1
     2    1   21 1
     3    1   22 1
     4    1   23 1
     5    2    3 1
     6    2   24 1
     7    2   25 1
     8    3    4 1
     9    3    5 1
    10    3    6 1
    11    5   26 1
    12    5   27 1
    13    5   28 1
    14    6    7 1
    15    6   29 1
    16    6   30 1
    17    7    8 1
    18    7   31 1
    19    7   39 1
    20    8    9 1
    21    8   32 1
    22    8   33 1
    23    9   13 1
    24    9   10 2
    25   10   11 1
    26   10   34 1
    27   11   12 1
    28   12   13 2
    29   12   14 1
    30   14   19 ar
    31   14   15 ar
    32   15   16 ar
    33   15   35 1
    34   16   17 ar
    35   16   36 1
    36   17   18 ar
    37   17   20 1
    38   18   19 ar
    39   18   37 1
    40   19   38 1
@<TRIPOS>MOLECULE
ZINC54468063
   39    40     0     0     0
SMALL
USER_CHARGES

@<TRIPOS>ATOM
      1 C1         -0.0187    1.5258    0.0104 C.3       1 <0>        -0.1603
      2 C2          0.0021   -0.0041    0.0020 C.3       1 <0>        -0.1172
      3 C3         -1.4333   -0.5336    0.0129 C.3       1 <0>        -0.1169
      4 H1         -1.9862   -0.1019   -0.8214 H         1 <0>         0.0942
      5 C4         -2.1103   -0.1453    1.3289 C.3       1 <0>        -0.1724
      6 C5         -1.4157   -2.0577   -0.1212 C.3       1 <0>        -0.0075
      7 N1         -2.7933   -2.5555   -0.2311 N.4       1 <0>        -0.5089
      8 C6         -2.7764   -4.0188   -0.3599 C.3       1 <0>         0.0776
      9 C7         -4.1897   -4.5295   -0.4726 C.2       1 <0>        -0.0087
     10 C8         -4.7354   -4.7579   -1.6965 C.2       1 <0>        -0.1814
     11 S1         -6.3639   -5.3314   -1.2299 S.3       1 <0>         0.0970
     12 C9         -6.1407   -5.2047    0.5396 C.2       1 <0>         0.1837
     13 N2         -4.8939   -4.7597    0.6108 N.2       1 <0>        -0.5077
     14 C10        -7.0892   -5.5173    1.6298 C.ar      1 <0>        -0.0547
     15 C11        -6.7095   -5.3391    2.9609 C.ar      1 <0>        -0.0332
     16 C12        -7.5981   -5.6322    3.9741 C.ar      1 <0>        -0.1555
     17 C13        -8.8660   -6.1033    3.6723 C.ar      1 <0>         0.1391
     18 C14        -9.2481   -6.2821    2.3522 C.ar      1 <0>        -0.1499
     19 C15        -8.3694   -5.9861    1.3312 C.ar      1 <0>        -0.0533
     20 F1         -9.7324   -6.3898    4.6685 F         1 <0>        -0.1240
     21 H2          1.0039    1.9031    0.0027 H         1 <0>         0.0667
     22 H3         -0.5459    1.8868   -0.8726 H         1 <0>         0.0588
     23 H4         -0.5289    1.8773    0.9072 H         1 <0>         0.0617
     24 H5          0.5123   -0.3556   -0.8948 H         1 <0>         0.0739
     25 H6          0.5293   -0.3651    0.8851 H         1 <0>         0.0751
     26 H7         -1.5574   -0.5770    2.1631 H         1 <0>         0.0735
     27 H8         -2.1228    0.9405    1.4244 H         1 <0>         0.0858
     28 H9         -3.1329   -0.5225    1.3366 H         1 <0>         0.0506
     29 H10        -0.8559   -2.3374   -1.0137 H         1 <0>         0.1348
     30 H11        -0.9406   -2.4942    0.7573 H         1 <0>         0.1342
     31 H12        -3.3115   -2.2966    0.5950 H         1 <0>         0.4295
     32 H13        -2.2167   -4.2985   -1.2524 H         1 <0>         0.1464
     33 H14        -2.3013   -4.4553    0.5187 H         1 <0>         0.1453
     34 H15        -4.3049   -4.6286   -2.6785 H         1 <0>         0.2109
     35 H16        -5.7214   -4.9726    3.1972 H         1 <0>         0.1453
     36 H17        -7.3053   -5.4946    5.0045 H         1 <0>         0.1502
     37 H18       -10.2374   -6.6495    2.1224 H         1 <0>         0.1519
     38 H19        -8.6698   -6.1211    0.3027 H         1 <0>         0.1394
     39 H20        -3.2331   -2.1514   -1.0444 H         1 <0>         0.4257
@<TRIPOS>BOND
     1    1    2 1
     2    1   21 1
     3    1   22 1
     4    1   23 1
     5    2    3 1
     6    2   24 1
     7    2   25 1
     8    3    4 1
     9    3    5 1
    10    3    6 1
    11    5   26 1
    12    5   27 1
    13    5   28 1
    14    6    7 1
    15    6   29 1
    16    6   30 1
    17    7    8 1
    18    7   31 1
    19    7   39 1
    20    8    9 1
    21    8   32 1
    22    8   33 1
    23    9   13 1
    24    9   10 2
    25   10   11 1
    26   10   34 1
    27   11   12 1
    28   12   13 2
    29   12   14 1
    30   14   19 ar
    31   14   15 ar
    32   15   16 ar
    33   15   35 1
    34   16   17 ar
    35   16   36 1
    36   17   18 ar
    37   17   20 1
    38   18   19 ar
    39   18   37 1
    40   19   38 1
@<TRIPOS>MOLECULE
ZINC61847356
   33    34     0     0     0
SMALL
USER_CHARGES

@<TRIPOS>ATOM
      1 C1         -0.0187    1.5258    0.0104 C.3       1 <0>        -0.1565
      2 C2          0.0021   -0.0041    0.0020 C.3       1 <0>        -0.1515
      3 C3          0.7182   -0.4975   -1.2568 C.3       1 <0>        -0.0103
      4 N1          0.7381   -1.9663   -1.2649 N.4       1 <0>        -0.5085
      5 C4          1.4257   -2.4401   -2.4735 C.3       1 <0>         0.0778
      6 C5          1.4462   -3.9469   -2.4818 C.2       1 <0>        -0.0149
      7 C6          0.4883   -4.6369   -3.1553 C.2       1 <0>        -0.2016
      8 S1          0.9998   -6.3187   -2.8261 S.3       1 <0>         0.1423
      9 C7          2.4301   -5.9203   -1.8297 C.2       1 <0>         0.1587
     10 N2          2.3922   -4.5951   -1.8429 N.2       1 <0>        -0.4980
     11 C8          3.3976   -6.8247   -1.1732 C.ar      1 <0>        -0.0367
     12 C9          4.4531   -6.2986   -0.4267 C.ar      1 <0>        -0.0243
     13 C10         5.3526   -7.1466    0.1842 C.ar      1 <0>        -0.1470
     14 C11         5.2106   -8.5198    0.0583 C.ar      1 <0>         0.1509
     15 C12         4.1652   -9.0485   -0.6811 C.ar      1 <0>        -0.1412
     16 C13         3.2556   -8.2089   -1.2927 C.ar      1 <0>         0.0095
     17 Cl1         1.9417   -8.8724   -2.2132 Cl        1 <0>        -0.0138
     18 F1          6.0953   -9.3456    0.6588 F         1 <0>        -0.1158
     19 H1          1.0039    1.9031    0.0027 H         1 <0>         0.0676
     20 H2         -0.5459    1.8868   -0.8726 H         1 <0>         0.0674
     21 H3         -0.5289    1.8773    0.9072 H         1 <0>         0.0776
     22 H4          0.5293   -0.3651    0.8851 H         1 <0>         0.0862
     23 H5         -1.0205   -0.3814    0.0098 H         1 <0>         0.0860
     24 H6          0.1910   -0.1364   -2.1398 H         1 <0>         0.1329
     25 H7          1.7408   -0.1202   -1.2645 H         1 <0>         0.1331
     26 H8          1.2261   -2.3006   -0.4474 H         1 <0>         0.4307
     27 H9          0.8985   -2.0790   -3.3565 H         1 <0>         0.1451
     28 H10         2.4483   -2.0628   -2.4812 H         1 <0>         0.1442
     29 H11        -0.3498   -4.2710   -3.7299 H         1 <0>         0.2072
     30 H12         4.5653   -5.2290   -0.3280 H         1 <0>         0.1561
     31 H13         6.1697   -6.7401    0.7616 H         1 <0>         0.1581
     32 H14         4.0594  -10.1191   -0.7762 H         1 <0>         0.1626
     33 H15        -0.2085   -2.3156   -1.2577 H         1 <0>         0.4261
@<TRIPOS>BOND
     1    1    2 1
     2    1   19 1
     3    1   20 1
     4    1   21 1
     5    2    3 1
     6    2   22 1
     7    2   23 1
     8    3    4 1
     9    3   24 1
    10    3   25 1
    11    4    5 1
    12    4   26 1
    13    4   33 1
    14    5    6 1
    15    5   27 1
    16    5   28 1
    17    6   10 1
    18    6    7 2
    19    7    8 1
    20    7   29 1
    21    8    9 1
    22    9   10 2
    23    9   11 1
    24   11   16 ar
    25   11   12 ar
    26   12   13 ar
    27   12   30 1
    28   13   14 ar
    29   13   31 1
    30   14   15 ar
    31   14   18 1
    32   15   16 ar
    33   15   32 1
    34   16   17 1
@<TRIPOS>MOLECULE
ZINC65711887
   34    35     0     0     0
SMALL
USER_CHARGES

@<TRIPOS>ATOM
      1 C1          0.1654    1.6578   -0.2586 C.3       1 <0>        -0.1676
      2 C2          0.1833    0.1372   -0.0903 C.3       1 <0>         0.1110
      3 N1          0.6741   -0.4847   -1.3227 N.am      1 <0>        -0.5970
      4 C3          2.1073   -0.7328   -1.4975 C.3       1 <0>         0.1086
      5 C4          2.4379   -2.1555   -1.0421 C.3       1 <0>        -0.1577
      6 C5         -0.1929   -0.8286   -2.2955 C.2       1 <0>         0.5884
      7 O1         -1.3688   -0.5348   -2.1940 O.2       1 <0>        -0.5343
      8 C6          0.2836   -1.5604   -3.4819 C.2       1 <0>        -0.0151
      9 C7         -0.5615   -1.8074   -4.5311 C.2       1 <0>        -0.1901
     10 S1          0.4270   -2.6458   -5.6047 S.3       1 <0>         0.1876
     11 C8          1.9218   -2.6410   -4.6307 C.2       1 <0>         0.0876
     12 N2          1.5380   -1.9844   -3.5511 N.2       1 <0>        -0.4349
     13 C9          3.2460   -3.2166   -4.9513 C.ar      1 <0>         0.0089
     14 C10         4.2961   -3.1085   -4.0385 C.ar      1 <0>        -0.0618
     15 C11         5.5292   -3.6469   -4.3421 C.ar      1 <0>        -0.0945
     16 C12         5.7270   -4.2936   -5.5504 C.ar      1 <0>        -0.0179
     17 C13         4.6885   -4.4043   -6.4610 C.ar      1 <0>        -0.0283
     18 C14         3.4483   -3.8744   -6.1647 C.ar      1 <0>        -0.0779
     19 Cl1         4.9450   -5.2166   -7.9735 Cl        1 <0>        -0.0344
     20 Cl2         7.2820   -4.9677   -5.9260 Cl        1 <0>        -0.0363
     21 H1          1.1748    2.0122   -0.4674 H         1 <0>         0.0555
     22 H2         -0.4917    1.9240   -1.0865 H         1 <0>         0.0597
     23 H3         -0.1998    2.1205    0.6583 H         1 <0>         0.0677
     24 H4          0.8404   -0.1290    0.7376 H         1 <0>         0.0791
     25 H5         -0.8261   -0.2172    0.1184 H         1 <0>         0.0829
     26 H6          2.3704   -0.6174   -2.5490 H         1 <0>         0.1016
     27 H7          2.6751   -0.0191   -0.9005 H         1 <0>         0.0691
     28 H8          2.1748   -2.2709    0.0093 H         1 <0>         0.0478
     29 H9          1.8702   -2.8692   -1.6391 H         1 <0>         0.0654
     30 H10         3.5043   -2.3401   -1.1722 H         1 <0>         0.0620
     31 H11        -1.6004   -1.5335   -4.6415 H         1 <0>         0.2117
     32 H12         4.1436   -2.6038   -3.0959 H         1 <0>         0.1525
     33 H13         6.3422   -3.5635   -3.6361 H         1 <0>         0.1530
     34 H14         2.6378   -3.9652   -6.8727 H         1 <0>         0.1474
@<TRIPOS>BOND
     1    1    2 1
     2    1   21 1
     3    1   22 1
     4    1   23 1
     5    2    3 1
     6    2   24 1
     7    2   25 1
     8    3    4 1
     9    3    6 am
    10    4    5 1
    11    4   26 1
    12    4   27 1
    13    5   28 1
    14    5   29 1
    15    5   30 1
    16    6    7 2
    17    6    8 1
    18    8   12 1
    19    8    9 2
    20    9   10 1
    21    9   31 1
    22   10   11 1
    23   11   12 2
    24   11   13 1
    25   13   18 ar
    26   13   14 ar
    27   14   15 ar
    28   14   32 1
    29   15   16 ar
    30   15   33 1
    31   16   17 ar
    32   16   20 1
    33   17   18 ar
    34   17   19 1
    35   18   34 1
@<TRIPOS>MOLECULE
ZINC80802600
   33    34     0     0     0
SMALL
USER_CHARGES

@<TRIPOS>ATOM
      1 C1         -0.0187    1.5258    0.0104 C.3       1 <0>        -0.1880
      2 C2          0.0021   -0.0041    0.0020 C.3       1 <0>        -0.0152
      3 N1          0.7126   -0.4907    1.1921 N.4       1 <0>        -0.5009
      4 C3          0.7325   -1.9595    1.1840 C.3       1 <0>         0.1172
      5 H1         -0.2871   -2.3363    1.1022 H         1 <0>         0.1510
      6 C4          1.5554   -2.4519   -0.0082 C.3       1 <0>        -0.1799
      7 C5          1.3520   -2.4606    2.4632 C.2       1 <0>        -0.0006
      8 C6          1.0476   -3.7016    2.9265 C.2       1 <0>        -0.1824
      9 S1          2.0367   -3.7498    4.4157 S.3       1 <0>         0.1415
     10 C7          2.7459   -2.1160    4.2591 C.2       1 <0>         0.1630
     11 N2          2.1906   -1.7013    3.1289 N.2       1 <0>        -0.5251
     12 C8          3.6985   -1.4175    5.1479 C.ar      1 <0>        -0.0549
     13 C9          4.1261   -0.1251    4.8399 C.ar      1 <0>        -0.0389
     14 C10         5.0150    0.5219    5.6728 C.ar      1 <0>        -0.1133
     15 C11         5.4844   -0.1063    6.8130 C.ar      1 <0>        -0.0510
     16 C12         5.0661   -1.3874    7.1267 C.ar      1 <0>        -0.0725
     17 C13         4.1703   -2.0458    6.3031 C.ar      1 <0>         0.1364
     18 F1          3.7575   -3.2946    6.6120 F         1 <0>        -0.1109
     19 Cl1         5.6611   -2.1672    8.5590 Cl        1 <0>        -0.0214
     20 H2          1.0039    1.9031    0.0027 H         1 <0>         0.0809
     21 H3         -0.5459    1.8868   -0.8726 H         1 <0>         0.1076
     22 H4         -0.5289    1.8773    0.9072 H         1 <0>         0.0804
     23 H5         -1.0205   -0.3814    0.0098 H         1 <0>         0.1314
     24 H6          0.5123   -0.3556   -0.8948 H         1 <0>         0.1329
     25 H7          1.6592   -0.1414    1.1850 H         1 <0>         0.4321
     26 H8          1.5702   -3.5418   -0.0141 H         1 <0>         0.1067
     27 H9          1.1073   -2.0895   -0.9334 H         1 <0>         0.0896
     28 H10         2.5749   -2.0751    0.0737 H         1 <0>         0.0841
     29 H11         0.3902   -4.4509    2.5107 H         1 <0>         0.2111
     30 H12         3.7617    0.3675    3.9505 H         1 <0>         0.1483
     31 H13         5.3461    1.5219    5.4341 H         1 <0>         0.1544
     32 H14         6.1806    0.4056    7.4609 H         1 <0>         0.1572
     33 H15         0.2403   -0.1653    2.0223 H         1 <0>         0.4292
@<TRIPOS>BOND
     1    1    2 1
     2    1   20 1
     3    1   21 1
     4    1   22 1
     5    2    3 1
     6    2   23 1
     7    2   24 1
     8    3    4 1
     9    3   25 1
    10    3   33 1
    11    4    5 1
    12    4    6 1
    13    4    7 1
    14    6   26 1
    15    6   27 1
    16    6   28 1
    17    7   11 1
    18    7    8 2
    19    8    9 1
    20    8   29 1
    21    9   10 1
    22   10   11 2
    23   10   12 1
    24   12   17 ar
    25   12   13 ar
    26   13   14 ar
    27   13   30 1
    28   14   15 ar
    29   14   31 1
    30   15   16 ar
    31   15   32 1
    32   16   17 ar
    33   16   19 1
    34   17   18 1
@<TRIPOS>MOLECULE
ZINC80802604
   33    34     0     0     0
SMALL
USER_CHARGES

@<TRIPOS>ATOM
      1 C1         -0.0187    1.5258    0.0104 C.3       1 <0>        -0.1880
      2 C2          0.0021   -0.0041    0.0020 C.3       1 <0>        -0.0152
      3 N1          0.7126   -0.4907    1.1921 N.4       1 <0>        -0.5009
      4 C3          0.7325   -1.9595    1.1840 C.3       1 <0>         0.1172
      5 H1          1.1628   -2.3119    0.2466 H         1 <0>         0.1510
      6 C4         -0.6962   -2.4897    1.3206 C.3       1 <0>        -0.1798
      7 C5          1.5652   -2.4570    2.3374 C.2       1 <0>        -0.0005
      8 C6          2.1571   -3.6789    2.2724 C.2       1 <0>        -0.1824
      9 S1          2.9808   -3.7314    3.8591 S.3       1 <0>         0.1412
     10 C7          2.4482   -2.1243    4.4342 C.2       1 <0>         0.1632
     11 N2          1.7246   -1.7087    3.4040 N.2       1 <0>        -0.5251
     12 C8          2.7400   -1.4411    5.7122 C.ar      1 <0>        -0.0550
     13 C9          2.2124   -0.1742    5.9662 C.ar      1 <0>        -0.0389
     14 C10         2.4879    0.4587    7.1604 C.ar      1 <0>        -0.1133
     15 C11         3.2859   -0.1586    8.1077 C.ar      1 <0>        -0.0510
     16 C12         3.8134   -1.4145    7.8649 C.ar      1 <0>        -0.0725
     17 C13         3.5403   -2.0632    6.6737 C.ar      1 <0>         0.1364
     18 F1          4.0507   -3.2918    6.4386 F         1 <0>        -0.1109
     19 Cl1         4.8137   -2.1802    9.0593 Cl        1 <0>        -0.0214
     20 H2          1.0039    1.9031    0.0027 H         1 <0>         0.0804
     21 H3         -0.5459    1.8868   -0.8726 H         1 <0>         0.1076
     22 H4         -0.5289    1.8773    0.9072 H         1 <0>         0.0809
     23 H5         -1.0205   -0.3814    0.0098 H         1 <0>         0.1329
     24 H6          0.5123   -0.3556   -0.8948 H         1 <0>         0.1314
     25 H7          1.6592   -0.1414    1.1850 H         1 <0>         0.4292
     26 H8         -1.2985   -2.1299    0.4864 H         1 <0>         0.0896
     27 H9         -0.6814   -3.5796    1.3146 H         1 <0>         0.1067
     28 H10        -1.1265   -2.1373    2.2580 H         1 <0>         0.0841
     29 H11         2.1357   -4.4144    1.4819 H         1 <0>         0.2111
     30 H12         1.5896    0.3101    5.2286 H         1 <0>         0.1483
     31 H13         2.0799    1.4392    7.3567 H         1 <0>         0.1544
     32 H14         3.4981    0.3424    9.0406 H         1 <0>         0.1572
     33 H15         0.2403   -0.1653    2.0223 H         1 <0>         0.4321
@<TRIPOS>BOND
     1    1    2 1
     2    1   20 1
     3    1   21 1
     4    1   22 1
     5    2    3 1
     6    2   23 1
     7    2   24 1
     8    3    4 1
     9    3   25 1
    10    3   33 1
    11    4    5 1
    12    4    6 1
    13    4    7 1
    14    6   26 1
    15    6   27 1
    16    6   28 1
    17    7   11 1
    18    7    8 2
    19    8    9 1
    20    8   29 1
    21    9   10 1
    22   10   11 2
    23   10   12 1
    24   12   17 ar
    25   12   13 ar
    26   13   14 ar
    27   13   30 1
    28   14   15 ar
    29   14   31 1
    30   15   16 ar
    31   15   32 1
    32   16   17 ar
    33   16   19 1
    34   17   18 1
@<TRIPOS>MOLECULE
ZINC49422276
   34    35     0     0     0
SMALL
USER_CHARGES

@<TRIPOS>ATOM
      1 C1         -0.0187    1.5258    0.0104 C.3       1 <0>        -0.1649
      2 C2          0.0021   -0.0041    0.0020 C.3       1 <0>         0.1669
      3 C3          0.7421   -0.5109    1.2415 C.3       1 <0>        -0.1649
      4 C4         -1.4333   -0.5336    0.0129 C.3       1 <0>        -0.1558
      5 N1          0.6878   -0.4765   -1.2033 N.am      1 <0>        -0.7056
      6 C5          1.9715   -0.1323   -1.4270 C.2       1 <0>         0.5933
      7 O1          2.5607    0.5707   -0.6282 O.2       1 <0>        -0.5298
      8 C6          2.6610   -0.6073   -2.6390 C.2       1 <0>        -0.0142
      9 C7          3.9670   -0.2674   -2.8731 C.2       1 <0>        -0.1921
     10 S1          4.2847   -1.0317   -4.3386 S.3       1 <0>         0.1898
     11 C8          2.6819   -1.7735   -4.5911 C.2       1 <0>         0.0963
     12 N2          2.0276   -1.3744   -3.5156 N.2       1 <0>        -0.4499
     13 C9          2.2110   -2.6193   -5.7094 C.ar      1 <0>         0.0069
     14 C10         0.9010   -3.1003   -5.7202 C.ar      1 <0>        -0.0574
     15 C11         0.4667   -3.8888   -6.7653 C.ar      1 <0>        -0.0949
     16 C12         1.3277   -4.2040   -7.8029 C.ar      1 <0>        -0.0175
     17 C13         2.6295   -3.7296   -7.7980 C.ar      1 <0>        -0.0287
     18 C14         3.0730   -2.9344   -6.7600 C.ar      1 <0>        -0.0775
     19 Cl1         3.7025   -4.1295   -9.1028 Cl        1 <0>        -0.0343
     20 Cl2         0.7743   -5.1978   -9.1143 Cl        1 <0>        -0.0361
     21 H1          1.0039    1.9031    0.0027 H         1 <0>         0.0778
     22 H2         -0.5459    1.8868   -0.8726 H         1 <0>         0.0544
     23 H3         -0.5289    1.8773    0.9072 H         1 <0>         0.0654
     24 H4          0.2319   -0.1594    2.1383 H         1 <0>         0.0654
     25 H5          0.7568   -1.6008    1.2356 H         1 <0>         0.0544
     26 H6          1.7647   -0.1336    1.2338 H         1 <0>         0.0778
     27 H7         -1.9605   -0.1726   -0.8702 H         1 <0>         0.0629
     28 H8         -1.4185   -1.6235    0.0069 H         1 <0>         0.0629
     29 H9         -1.9435   -0.1821    0.9097 H         1 <0>         0.0759
     30 H10         0.2179   -1.0371   -1.8404 H         1 <0>         0.4079
     31 H11         4.6266    0.3387   -2.2697 H         1 <0>         0.2128
     32 H12         0.2284   -2.8559   -4.9113 H         1 <0>         0.1519
     33 H13        -0.5470   -4.2613   -6.7742 H         1 <0>         0.1533
     34 H14         4.0863   -2.5609   -6.7591 H         1 <0>         0.1477
@<TRIPOS>BOND
     1    1    2 1
     2    1   21 1
     3    1   22 1
     4    1   23 1
     5    2    3 1
     6    2    4 1
     7    2    5 1
     8    3   24 1
     9    3   25 1
    10    3   26 1
    11    4   27 1
    12    4   28 1
    13    4   29 1
    14    5    6 am
    15    5   30 1
    16    6    7 2
    17    6    8 1
    18    8   12 1
    19    8    9 2
    20    9   10 1
    21    9   31 1
    22   10   11 1
    23   11   12 2
    24   11   13 1
    25   13   18 ar
    26   13   14 ar
    27   14   15 ar
    28   14   32 1
    29   15   16 ar
    30   15   33 1
    31   16   17 ar
    32   16   20 1
    33   17   18 ar
    34   17   19 1
    35   18   34 1
@<TRIPOS>MOLECULE
ZINC03119153
   38    41     0     0     0
SMALL
USER_CHARGES
2-(4-chlorophenyl)-4-(4-phenylphenyl)-thiazole
@<TRIPOS>ATOM
      1 C1         12.6084    4.0557   -0.0893 C.ar      1 <0>        -0.1174
      2 C2         12.4361    2.6831   -0.0943 C.ar      1 <0>        -0.1178
      3 C3         11.1656    2.1445   -0.0861 C.ar      1 <0>        -0.1099
      4 C4         10.0547    2.9863   -0.0723 C.ar      1 <0>        -0.0491
      5 C5         10.2343    4.3685   -0.0727 C.ar      1 <0>        -0.1095
      6 C6         11.5096    4.8959   -0.0756 C.ar      1 <0>        -0.1176
      7 C7          8.6868    2.4134   -0.0635 C.ar      1 <0>        -0.0365
      8 C8          7.5772    3.2581   -0.0497 C.ar      1 <0>        -0.1126
      9 C9          6.3067    2.7262   -0.0414 C.ar      1 <0>        -0.0807
     10 C10         6.1299    1.3427   -0.0473 C.ar      1 <0>        -0.0276
     11 C11         7.2398    0.4979   -0.0563 C.ar      1 <0>        -0.0998
     12 C12         8.5101    1.0301   -0.0694 C.ar      1 <0>        -0.1104
     13 C13         4.7623    0.7700   -0.0380 C.2       1 <0>         0.1017
     14 C14         4.5811   -0.5893   -0.0437 C.2       1 <0>        -0.1912
     15 S1          2.7956   -0.6852   -0.0279 S.3       1 <0>         0.0305
     16 C15         2.4784    1.0739   -0.0154 C.2       1 <0>         0.1562
     17 N1          3.7077    1.5637   -0.0298 N.2       1 <0>        -0.4864
     18 C16         1.1856    1.7914    0.0004 C.ar      1 <0>        -0.0136
     19 C17        -0.0126    1.0758    0.0080 C.ar      1 <0>        -0.0786
     20 C18        -1.2156    1.7506    0.0173 C.ar      1 <0>        -0.1074
     21 C19        -1.2359    3.1351    0.0308 C.ar      1 <0>        -0.0175
     22 C20        -0.0502    3.8505    0.0233 C.ar      1 <0>        -0.1098
     23 C21         1.1588    3.1867    0.0082 C.ar      1 <0>        -0.0570
     24 Cl1        -2.7537    3.9774    0.0499 Cl        1 <0>        -0.0583
     25 H1         13.6045    4.4728   -0.0964 H         1 <0>         0.1235
     26 H2         13.2976    2.0319   -0.1050 H         1 <0>         0.1250
     27 H3         11.0322    1.0728   -0.0908 H         1 <0>         0.1256
     28 H4          9.3771    5.0255   -0.0668 H         1 <0>         0.1259
     29 H5         11.6500    5.9668   -0.0717 H         1 <0>         0.1251
     30 H6          7.7141    4.3294   -0.0451 H         1 <0>         0.1291
     31 H7          5.4474    3.3804   -0.0307 H         1 <0>         0.1349
     32 H8          7.1030   -0.5734   -0.0567 H         1 <0>         0.1271
     33 H9          9.3695    0.3760   -0.0797 H         1 <0>         0.1301
     34 H10         5.3140   -1.3825   -0.0550 H         1 <0>         0.2030
     35 H11         0.0021   -0.0041    0.0020 H         1 <0>         0.1376
     36 H12        -2.1435    1.1979    0.0183 H         1 <0>         0.1440
     37 H13        -0.0722    4.9302    0.0290 H         1 <0>         0.1437
     38 H14         2.0829    3.7456    0.0020 H         1 <0>         0.1460
@<TRIPOS>BOND
     1    1    6 ar
     2    1    2 ar
     3    1   25 1
     4    2    3 ar
     5    2   26 1
     6    3    4 ar
     7    3   27 1
     8    4    5 ar
     9    4    7 1
    10    5    6 ar
    11    5   28 1
    12    6   29 1
    13    7   12 ar
    14    7    8 ar
    15    8    9 ar
    16    8   30 1
    17    9   10 ar
    18    9   31 1
    19   10   11 ar
    20   10   13 1
    21   11   12 ar
    22   11   32 1
    23   12   33 1
    24   13   17 1
    25   13   14 2
    26   14   15 1
    27   14   34 1
    28   15   16 1
    29   16   17 2
    30   16   18 1
    31   18   23 ar
    32   18   19 ar
    33   19   20 ar
    34   19   35 1
    35   20   21 ar
    36   20   36 1
    37   21   22 ar
    38   21   24 1
    39   22   23 ar
    40   22   37 1
    41   23   38 1
@<TRIPOS>MOLECULE
ZINC11956022
   27    28     0     0     0
SMALL
USER_CHARGES
2-[2-(4-fluorophenyl)thiazol-4-yl]ethanamine
@<TRIPOS>ATOM
      1 C1         -0.0126    1.0758    0.0080 C.ar      1 <0>        -0.0561
      2 C2         -1.2155    1.7503    0.0173 C.ar      1 <0>        -0.1492
      3 C3         -1.2356    3.1360    0.0308 C.ar      1 <0>         0.1333
      4 C4         -0.0486    3.8512    0.0233 C.ar      1 <0>        -0.1557
      5 C5          1.1597    3.1866    0.0081 C.ar      1 <0>        -0.0373
      6 C6          1.1857    1.7913    0.0004 C.ar      1 <0>        -0.0462
      7 C7          2.4782    1.0735   -0.0164 C.2       1 <0>         0.1736
      8 N1          3.7111    1.5606   -0.0256 N.2       1 <0>        -0.5117
      9 C8          4.7569    0.7676   -0.0400 C.2       1 <0>         0.0409
     10 C9          4.5846   -0.5807   -0.0456 C.2       1 <0>        -0.1947
     11 S1          2.7994   -0.6854   -0.0216 S.3       1 <0>         0.0635
     12 C10         6.1464    1.3510   -0.0507 C.3       1 <0>        -0.0702
     13 C11         6.2845    2.3177   -1.2285 C.3       1 <0>         0.0015
     14 F1         -2.4166    3.7919    0.0456 F         1 <0>        -0.1261
     15 H1          0.0021   -0.0041    0.0020 H         1 <0>         0.1393
     16 H2         -2.1434    1.1977    0.0183 H         1 <0>         0.1505
     17 H3         -0.0699    4.9310    0.0290 H         1 <0>         0.1481
     18 H4          2.0842    3.7450    0.0020 H         1 <0>         0.1434
     19 H5          5.3216   -1.3701   -0.0569 H         1 <0>         0.2037
     20 H6          6.3226    1.8870    0.8819 H         1 <0>         0.1016
     21 H7          6.8767    0.5482   -0.1520 H         1 <0>         0.1023
     22 H8          6.1083    1.7817   -2.1611 H         1 <0>         0.1338
     23 H9          5.5542    3.1205   -1.1272 H         1 <0>         0.1399
     24 H10         8.3367    2.1581   -1.2671 H         1 <0>         0.4364
     25 H11         7.7555    3.5288   -2.0083 H         1 <0>         0.4418
     26 N2          7.6388    2.8984   -1.2167 N.4       1 <0>        -0.6466
     27 H12         7.7722    3.4259   -0.3459 H         1 <0>         0.4403
@<TRIPOS>BOND
     1    1    6 ar
     2    1    2 ar
     3    1   15 1
     4    2    3 ar
     5    2   16 1
     6    3    4 ar
     7    3   14 1
     8    4    5 ar
     9    4   17 1
    10    5    6 ar
    11    5   18 1
    12    6    7 1
    13    7   11 1
    14    7    8 2
    15    8    9 1
    16    9   10 2
    17    9   12 1
    18   10   11 1
    19   10   19 1
    20   12   13 1
    21   12   20 1
    22   12   21 1
    23   13   22 1
    24   13   23 1
    25   13   26 1
    26   24   26 1
    27   25   26 1
    28   26   27 1
@<TRIPOS>MOLECULE
ZINC01510275
   22    23     0     0     0
SMALL
USER_CHARGES
2-[2-(4-chlorophenyl)thiazol-4-yl]acetonitrile
@<TRIPOS>ATOM
      1 C1         -2.4414   -0.4876    0.0295 C.ar      1 <0>        -0.0558
      2 C2         -3.4914   -1.3822    0.0302 C.ar      1 <0>        -0.1101
      3 C3         -3.2437   -2.7446    0.0204 C.ar      1 <0>        -0.0164
      4 C4         -1.9422   -3.2172    0.0045 C.ar      1 <0>        -0.1078
      5 C5         -0.8843   -2.3321   -0.0017 C.ar      1 <0>        -0.0778
      6 C6         -1.1277   -0.9579    0.0081 C.ar      1 <0>        -0.0161
      7 C7          0.0021   -0.0041    0.0020 C.2       1 <0>         0.1581
      8 N1         -0.0159    1.3214    0.0093 N.2       1 <0>        -0.4911
      9 C8          1.0964    2.0180    0.0024 C.2       1 <0>         0.0538
     10 C9          2.2960    1.3786   -0.0125 C.2       1 <0>        -0.1839
     11 S1          1.7604   -0.3277   -0.0165 S.3       1 <0>         0.0347
     12 C10         1.0438    3.5240    0.0110 C.3       1 <0>         0.0495
     13 C11         0.2199    3.9927   -1.1152 C.1       1 <0>         0.2103
     14 N2         -0.4160    4.3544   -1.9843 N.1       1 <0>        -0.4239
     15 Cl1        -4.5702   -3.8645    0.0287 Cl        1 <0>        -0.0577
     16 H1         -2.6357    0.5747    0.0413 H         1 <0>         0.1457
     17 H2         -4.5085   -1.0194    0.0426 H         1 <0>         0.1437
     18 H3         -1.7551   -4.2808   -0.0027 H         1 <0>         0.1443
     19 H4          0.1304   -2.7018   -0.0137 H         1 <0>         0.1379
     20 H5          3.2955    1.7878   -0.0195 H         1 <0>         0.2078
     21 H6          0.6064    3.8670    0.9487 H         1 <0>         0.1267
     22 H7          2.0533    3.9234   -0.0865 H         1 <0>         0.1280
@<TRIPOS>BOND
     1    1    6 ar
     2    1    2 ar
     3    1   16 1
     4    2    3 ar
     5    2   17 1
     6    3    4 ar
     7    3   15 1
     8    4    5 ar
     9    4   18 1
    10    5    6 ar
    11    5   19 1
    12    6    7 1
    13    7   11 1
    14    7    8 2
    15    8    9 1
    16    9   10 2
    17    9   12 1
    18   10   11 1
    19   10   20 1
    20   12   13 1
    21   12   21 1
    22   12   22 1
    23   13   14 3
@<TRIPOS>MOLECULE
ZINC83546630
   27    28     0     0     0
SMALL
USER_CHARGES

@<TRIPOS>ATOM
      1 C1         -0.0167    1.3793    0.0096 C.ar      1 <0>        -0.0099
      2 C2          1.1677    2.0936    0.0022 C.ar      1 <0>        -0.1512
      3 C3          2.3788    1.4281   -0.0130 C.ar      1 <0>         0.1846
      4 C4          2.4035    0.0305   -0.0208 C.ar      1 <0>        -0.0720
      5 C5          1.2039   -0.6818   -0.0131 C.ar      1 <0>        -0.0089
      6 C6          0.0021   -0.0041    0.0020 C.ar      1 <0>        -0.1883
      7 C7         -1.2940   -0.7730    0.0108 C.3       1 <0>         0.5120
      8 F1         -2.3679    0.1234    0.0263 F         1 <0>        -0.1682
      9 F2         -1.3699   -1.5720   -1.1351 F         1 <0>        -0.1703
     10 F3         -1.3472   -1.5843    1.1493 F         1 <0>        -0.1697
     11 C8          3.6945   -0.6894   -0.0375 C.2       1 <0>         0.1657
     12 N1          4.9283   -0.2044   -0.0417 N.2       1 <0>        -0.4918
     13 C9          5.9728   -0.9992   -0.0574 C.2       1 <0>        -0.0148
     14 C10         5.7981   -2.3471   -0.0696 C.2       1 <0>        -0.1745
     15 S1          4.0127   -2.4488   -0.0495 S.3       1 <0>         0.1166
     16 C11         7.3633   -0.4183   -0.0623 C.3       1 <0>         0.0797
     17 N2          7.7579   -0.1042   -1.4420 N.4       1 <0>        -0.6350
     18 F4          3.5355    2.1262   -0.0207 F         1 <0>        -0.1079
     19 H1         -0.9606    1.9039    0.0260 H         1 <0>         0.1635
     20 H2          1.1460    3.1734    0.0078 H         1 <0>         0.1642
     21 H3          1.2159   -1.7617   -0.0194 H         1 <0>         0.1500
     22 H4          6.5338   -3.1377   -0.0834 H         1 <0>         0.2142
     23 H5          7.3787    0.4925    0.5363 H         1 <0>         0.1485
     24 H6          8.0609   -1.1419    0.3593 H         1 <0>         0.1497
     25 H7          8.6889    0.2848   -1.4453 H         1 <0>         0.4412
     26 H8          7.7437   -0.9473   -1.9961 H         1 <0>         0.4337
     27 H9          7.1121    0.5657   -1.8323 H         1 <0>         0.4389
@<TRIPOS>BOND
     1    1    6 ar
     2    1    2 ar
     3    1   19 1
     4    2    3 ar
     5    2   20 1
     6    3    4 ar
     7    3   18 1
     8    4    5 ar
     9    4   11 1
    10    5    6 ar
    11    5   21 1
    12    6    7 1
    13    7    8 1
    14    7    9 1
    15    7   10 1
    16   11   15 1
    17   11   12 2
    18   12   13 1
    19   13   14 2
    20   13   16 1
    21   14   15 1
    22   14   22 1
    23   16   17 1
    24   16   23 1
    25   16   24 1
    26   17   25 1
    27   17   26 1
    28   17   27 1
@<TRIPOS>MOLECULE
ZINC70840253
   30    31     0     0     0
SMALL
USER_CHARGES

@<TRIPOS>ATOM
      1 C1         -0.0184    1.5028    0.0103 C.3       1 <0>        -0.1290
      2 C2          0.0021   -0.0041    0.0020 C.ar      1 <0>        -0.0137
      3 C3          0.0057   -0.6861   -1.2022 C.ar      1 <0>        -0.1290
      4 C4          0.0248   -2.0653   -1.2183 C.ar      1 <0>        -0.0503
      5 C5          0.0406   -2.7745   -0.0165 C.ar      1 <0>        -0.0895
      6 C6          0.0368   -2.0809    1.1966 C.ar      1 <0>         0.1638
      7 C7          0.0229   -0.6985    1.1976 C.ar      1 <0>        -0.1607
      8 F1          0.0515   -2.7591    2.3649 F         1 <0>        -0.1156
      9 C8          0.0606   -4.2526   -0.0268 C.2       1 <0>         0.1945
     10 N1          0.0718   -5.1010    0.9919 N.2       1 <0>        -0.4930
     11 C9          0.0895   -6.3990    0.7973 C.2       1 <0>         0.0423
     12 C10         0.0965   -6.8942   -0.4685 C.2       1 <0>        -0.2625
     13 S1          0.0683   -5.3778   -1.4163 S.3       1 <0>         0.1066
     14 C11         0.1025   -7.3386    1.9755 C.3       1 <0>         0.1094
     15 H1         -0.8305   -7.2387    2.5302 H         1 <0>         0.1580
     16 C12         1.2793   -6.9934    2.8903 C.3       1 <0>        -0.1749
     17 N2          0.2425   -8.7207    1.4979 N.4       1 <0>        -0.6346
     18 H2          1.0042    1.8801    0.0026 H         1 <0>         0.0868
     19 H3         -0.5455    1.8639   -0.8728 H         1 <0>         0.0802
     20 H4         -0.5286    1.8543    0.9071 H         1 <0>         0.0783
     21 H5         -0.0068   -0.1369   -2.1320 H         1 <0>         0.1459
     22 H6          0.0273   -2.5953   -2.1593 H         1 <0>         0.1388
     23 H7          0.0244   -0.1600    2.1338 H         1 <0>         0.1499
     24 H8          0.1105   -7.9194   -0.8078 H         1 <0>         0.1986
     25 H9          1.2886   -7.6730    3.7424 H         1 <0>         0.0881
     26 H10         2.2122   -7.0933    2.3355 H         1 <0>         0.0802
     27 H11         1.1753   -5.9678    3.2446 H         1 <0>         0.1162
     28 H12         1.1061   -8.8133    0.9844 H         1 <0>         0.4348
     29 H13         0.2512   -9.3499    2.2867 H         1 <0>         0.4439
     30 H14        -0.5335   -8.9484    0.8947 H         1 <0>         0.4365
@<TRIPOS>BOND
     1    1    2 1
     2    1   18 1
     3    1   19 1
     4    1   20 1
     5    2    7 ar
     6    2    3 ar
     7    3    4 ar
     8    3   21 1
     9    4    5 ar
    10    4   22 1
    11    5    6 ar
    12    5    9 1
    13    6    7 ar
    14    6    8 1
    15    7   23 1
    16    9   13 1
    17    9   10 2
    18   10   11 1
    19   11   12 2
    20   11   14 1
    21   12   13 1
    22   12   24 1
    23   14   15 1
    24   14   16 1
    25   14   17 1
    26   16   25 1
    27   16   26 1
    28   16   27 1
    29   17   28 1
    30   17   29 1
    31   17   30 1
@<TRIPOS>MOLECULE
ZINC69501137
   29    31     0     0     0
SMALL
USER_CHARGES

@<TRIPOS>ATOM
      1 C1         -0.0168    1.3850    0.0097 C.ar      1 <0>        -0.1311
      2 C2          1.1413    2.1039    0.0025 C.ar      1 <0>        -0.0511
      3 C3          2.3801    1.4426   -0.0128 C.ar      1 <0>        -0.1081
      4 C4          3.5917    2.1600   -0.0200 C.ar      1 <0>        -0.0384
      5 C5          4.7599    1.4522   -0.0345 C.ar      1 <0>        -0.1743
      6 C6          4.7283    0.0599   -0.0418 C.ar      1 <0>         0.1595
      7 N1          3.5968   -0.6039   -0.0356 N.ar      1 <0>        -0.4974
      8 C7          2.4219    0.0274   -0.0209 C.ar      1 <0>         0.1514
      9 C8          1.2030   -0.6963   -0.0135 C.ar      1 <0>        -0.0299
     10 C9          0.0021   -0.0041    0.0020 C.ar      1 <0>        -0.0247
     11 C10         1.2125   -2.1717   -0.0213 C.2       1 <0>         0.1744
     12 N2          0.1926   -3.0203   -0.0219 N.2       1 <0>        -0.5159
     13 C11         0.3866   -4.3177   -0.0302 C.2       1 <0>        -0.0181
     14 C12         1.6530   -4.8137   -0.0384 C.2       1 <0>        -0.2212
     15 S1          2.6015   -3.2975   -0.0405 S.3       1 <0>         0.1816
     16 C13        -0.7918   -5.2571   -0.0301 C.3       1 <0>         0.0799
     17 N3         -1.2440   -5.4753    1.3504 N.4       1 <0>        -0.6348
     18 H1         -0.9640    1.9035    0.0260 H         1 <0>         0.1428
     19 H2          1.1062    3.1833    0.0082 H         1 <0>         0.1430
     20 H3          3.5972    3.2400   -0.0144 H         1 <0>         0.1492
     21 H4          5.7068    1.9715   -0.0406 H         1 <0>         0.1478
     22 H5          5.6593   -0.4875   -0.0534 H         1 <0>         0.1680
     23 H6         -0.9293   -0.5508    0.0080 H         1 <0>         0.1429
     24 H7          1.9919   -5.8391   -0.0452 H         1 <0>         0.2045
     25 H8         -1.6032   -4.8221   -0.6137 H         1 <0>         0.1446
     26 H9         -0.4973   -6.2095   -0.4708 H         1 <0>         0.1459
     27 H10        -1.5166   -4.5936    1.7584 H         1 <0>         0.4375
     28 H11        -2.0330   -6.1042    1.3505 H         1 <0>         0.4387
     29 H12        -0.4929   -5.8779    1.8907 H         1 <0>         0.4333
@<TRIPOS>BOND
     1    1   10 ar
     2    1    2 ar
     3    1   18 1
     4    2    3 ar
     5    2   19 1
     6    3    8 ar
     7    3    4 ar
     8    4    5 ar
     9    4   20 1
    10    5    6 ar
    11    5   21 1
    12    6    7 ar
    13    6   22 1
    14    7    8 ar
    15    8    9 ar
    16    9   10 ar
    17    9   11 1
    18   10   23 1
    19   11   15 1
    20   11   12 2
    21   12   13 1
    22   13   14 2
    23   13   16 1
    24   14   15 1
    25   14   24 1
    26   16   17 1
    27   16   25 1
    28   16   26 1
    29   17   27 1
    30   17   28 1
    31   17   29 1
@<TRIPOS>MOLECULE
ZINC40999694
   33    34     0     0     0
SMALL
USER_CHARGES

@<TRIPOS>ATOM
      1 C1         -0.0187    1.5258    0.0104 C.3       1 <0>        -0.1857
      2 C2          0.0021   -0.0041    0.0020 C.3       1 <0>         0.0240
      3 C3         -1.4333   -0.5336    0.0129 C.3       1 <0>        -0.1842
      4 N1          0.6897   -0.4778   -1.2066 N.4       1 <0>        -0.5064
      5 C4          2.1002   -0.0703   -1.1590 C.3       1 <0>         0.0754
      6 C5          2.8056   -0.5563   -2.3989 C.2       1 <0>        -0.0101
      7 C6          2.9454    0.2687   -3.4701 C.2       1 <0>        -0.1922
      8 S1          3.8259   -0.8029   -4.5993 S.3       1 <0>         0.1258
      9 C7          3.9114   -2.2290   -3.5241 C.2       1 <0>         0.1703
     10 N2          3.2907   -1.7751   -2.4442 N.2       1 <0>        -0.5037
     11 C8          4.5161   -3.5551   -3.7710 C.ar      1 <0>        -0.0723
     12 C9          4.4667   -4.5425   -2.7860 C.ar      1 <0>        -0.0388
     13 C10         5.0324   -5.7781   -3.0225 C.ar      1 <0>        -0.1283
     14 C11         5.6491   -6.0411   -4.2332 C.ar      1 <0>        -0.0557
     15 C12         5.7028   -5.0688   -5.2149 C.ar      1 <0>        -0.1475
     16 C13         5.1350   -3.8278   -4.9939 C.ar      1 <0>         0.1287
     17 F1          5.1827   -2.8800   -5.9553 F         1 <0>        -0.1244
     18 H1          1.0039    1.9031    0.0027 H         1 <0>         0.0815
     19 H2         -0.5459    1.8868   -0.8726 H         1 <0>         0.0822
     20 H3         -0.5289    1.8773    0.9072 H         1 <0>         0.1072
     21 H4          0.5293   -0.3651    0.8851 H         1 <0>         0.1406
     22 H5         -1.9605   -0.1726   -0.8702 H         1 <0>         0.0812
     23 H6         -1.4185   -1.6235    0.0069 H         1 <0>         0.0817
     24 H7         -1.9435   -0.1821    0.9097 H         1 <0>         0.1078
     25 H8          0.6317   -1.4840   -1.2540 H         1 <0>         0.4308
     26 H9          2.1628    1.0167   -1.1079 H         1 <0>         0.1461
     27 H10         2.5740   -0.5034   -0.2781 H         1 <0>         0.1446
     28 H11         2.6156    1.2885   -3.6028 H         1 <0>         0.2098
     29 H12         3.9866   -4.3394   -1.8401 H         1 <0>         0.1446
     30 H13         4.9943   -6.5424   -2.2604 H         1 <0>         0.1445
     31 H14         6.0907   -7.0103   -4.4120 H         1 <0>         0.1470
     32 H15         6.1858   -5.2804   -6.1574 H         1 <0>         0.1513
     33 H16         0.2511   -0.0769   -2.0221 H         1 <0>         0.4241
@<TRIPOS>BOND
     1    1    2 1
     2    1   18 1
     3    1   19 1
     4    1   20 1
     5    2    3 1
     6    2    4 1
     7    2   21 1
     8    3   22 1
     9    3   23 1
    10    3   24 1
    11    4    5 1
    12    4   25 1
    13    4   33 1
    14    5    6 1
    15    5   26 1
    16    5   27 1
    17    6   10 1
    18    6    7 2
    19    7    8 1
    20    7   28 1
    21    8    9 1
    22    9   10 2
    23    9   11 1
    24   11   16 ar
    25   11   12 ar
    26   12   13 ar
    27   12   29 1
    28   13   14 ar
    29   13   30 1
    30   14   15 ar
    31   14   31 1
    32   15   16 ar
    33   15   32 1
    34   16   17 1
@<TRIPOS>MOLECULE
ZINC70840246
   30    31     0     0     0
SMALL
USER_CHARGES

@<TRIPOS>ATOM
      1 C1         -0.0184    1.5028    0.0103 C.3       1 <0>        -0.1290
      2 C2          0.0021   -0.0041    0.0020 C.ar      1 <0>        -0.0161
      3 C3          0.0057   -0.6861   -1.2022 C.ar      1 <0>        -0.1269
      4 C4          0.0248   -2.0653   -1.2183 C.ar      1 <0>        -0.0522
      5 C5          0.0406   -2.7745   -0.0165 C.ar      1 <0>        -0.0838
      6 C6          0.0368   -2.0809    1.1966 C.ar      1 <0>         0.1581
      7 C7          0.0229   -0.6985    1.1976 C.ar      1 <0>        -0.1595
      8 F1          0.0515   -2.7591    2.3649 F         1 <0>        -0.1207
      9 C8          0.0606   -4.2526   -0.0268 C.2       1 <0>         0.1799
     10 N1          0.0718   -5.1010    0.9919 N.2       1 <0>        -0.5057
     11 C9          0.0895   -6.3990    0.7973 C.2       1 <0>        -0.0070
     12 C10         0.0965   -6.8942   -0.4685 C.2       1 <0>        -0.1766
     13 S1          0.0683   -5.3778   -1.4163 S.3       1 <0>         0.1000
     14 C11         0.1025   -7.3386    1.9755 C.3       1 <0>         0.1176
     15 H1          0.2064   -8.3642    1.6211 H         1 <0>         0.1532
     16 C12         1.2793   -6.9934    2.8903 C.3       1 <0>        -0.1778
     17 N2         -1.1549   -7.2039    2.7231 N.4       1 <0>        -0.6341
     18 H2          1.0042    1.8801    0.0026 H         1 <0>         0.0867
     19 H3         -0.5455    1.8639   -0.8728 H         1 <0>         0.0803
     20 H4         -0.5286    1.8543    0.9071 H         1 <0>         0.0778
     21 H5         -0.0068   -0.1369   -2.1320 H         1 <0>         0.1458
     22 H6          0.0273   -2.5953   -2.1593 H         1 <0>         0.1392
     23 H7          0.0244   -0.1600    2.1338 H         1 <0>         0.1487
     24 H8          0.1105   -7.9194   -0.8078 H         1 <0>         0.2112
     25 H9          2.2122   -7.0933    2.3355 H         1 <0>         0.1032
     26 H10         1.1753   -5.9678    3.2446 H         1 <0>         0.0911
     27 H11         1.2886   -7.6730    3.7424 H         1 <0>         0.0863
     28 H12        -1.9309   -7.4316    2.1198 H         1 <0>         0.4342
     29 H13        -1.1462   -7.8330    3.5119 H         1 <0>         0.4372
     30 H14        -1.2511   -6.2546    3.0511 H         1 <0>         0.4390
@<TRIPOS>BOND
     1    1    2 1
     2    1   18 1
     3    1   19 1
     4    1   20 1
     5    2    7 ar
     6    2    3 ar
     7    3    4 ar
     8    3   21 1
     9    4    5 ar
    10    4   22 1
    11    5    6 ar
    12    5    9 1
    13    6    7 ar
    14    6    8 1
    15    7   23 1
    16    9   13 1
    17    9   10 2
    18   10   11 1
    19   11   12 2
    20   11   14 1
    21   12   13 1
    22   12   24 1
    23   14   15 1
    24   14   16 1
    25   14   17 1
    26   16   25 1
    27   16   26 1
    28   16   27 1
    29   17   28 1
    30   17   29 1
    31   17   30 1
@<TRIPOS>MOLECULE
ZINC62938387
   34    36     0     0     0
SMALL
USER_CHARGES

@<TRIPOS>ATOM
      1 C1         -0.0167    1.3792    0.0096 C.ar      1 <0>        -0.1106
      2 C2          1.1661    2.0896    0.0021 C.ar      1 <0>        -0.0580
      3 C3          2.3851    1.4109   -0.0132 C.ar      1 <0>        -0.0495
      4 C4          2.3996    0.0135   -0.0208 C.ar      1 <0>         0.1571
      5 C5          1.2064   -0.6861   -0.0132 C.ar      1 <0>        -0.0795
      6 C6          0.0021   -0.0041    0.0020 C.ar      1 <0>        -0.0562
      7 Cl1         1.2194   -2.4221   -0.0232 Cl        1 <0>        -0.0325
      8 F1          3.5752   -0.6520   -0.0361 F         1 <0>        -0.1052
      9 C7          3.6557    2.1666   -0.0217 C.2       1 <0>         0.1577
     10 N1          4.8992    1.7140   -0.0415 N.2       1 <0>        -0.4809
     11 C8          5.9294    2.5392   -0.0464 C.2       1 <0>         0.0778
     12 C9          5.7080    3.8917   -0.0307 C.2       1 <0>        -0.1841
     13 S1          3.9204    3.9344   -0.0160 S.3       1 <0>         0.0726
     14 C10         7.3142    2.0077   -0.0683 C.ar      1 <0>         0.0239
     15 C11         8.3992    2.8823   -0.0671 C.ar      1 <0>        -0.1071
     16 C12         9.6854    2.3822   -0.0875 C.ar      1 <0>        -0.0885
     17 C13         9.8986    1.0156   -0.1096 C.ar      1 <0>        -0.1739
     18 C14         8.8254    0.1429   -0.1113 C.ar      1 <0>        -0.0901
     19 C15         7.5350    0.6317   -0.0843 C.ar      1 <0>        -0.0857
     20 C16        11.3053    0.4757   -0.1323 C.3       1 <0>         0.0485
     21 N2         11.7771    0.2801    1.2451 N.4       1 <0>        -0.6372
     22 H1         -0.9601    1.9047    0.0260 H         1 <0>         0.1542
     23 H2          1.1484    3.1694    0.0078 H         1 <0>         0.1452
     24 H3         -0.9272   -0.5543    0.0080 H         1 <0>         0.1545
     25 H4          6.4170    4.7064   -0.0314 H         1 <0>         0.2060
     26 H5          8.2339    3.9495   -0.0506 H         1 <0>         0.1374
     27 H6         10.5269    3.0591   -0.0866 H         1 <0>         0.1359
     28 H7          8.9977   -0.9232   -0.1289 H         1 <0>         0.1350
     29 H8          6.6979   -0.0507   -0.0804 H         1 <0>         0.1468
     30 H9         11.3200   -0.4779   -0.6602 H         1 <0>         0.1400
     31 H10        11.9581    1.1837   -0.6429 H         1 <0>         0.1400
     32 H11        11.7635    1.1628    1.7337 H         1 <0>         0.4343
     33 H12        11.1729   -0.3753    1.7177 H         1 <0>         0.4349
     34 H13        12.7190   -0.0814    1.2299 H         1 <0>         0.4375
@<TRIPOS>BOND
     1    1    6 ar
     2    1    2 ar
     3    1   22 1
     4    2    3 ar
     5    2   23 1
     6    3    4 ar
     7    3    9 1
     8    4    5 ar
     9    4    8 1
    10    5    6 ar
    11    5    7 1
    12    6   24 1
    13    9   13 1
    14    9   10 2
    15   10   11 1
    16   11   12 2
    17   11   14 1
    18   12   13 1
    19   12   25 1
    20   14   19 ar
    21   14   15 ar
    22   15   16 ar
    23   15   26 1
    24   16   17 ar
    25   16   27 1
    26   17   18 ar
    27   17   20 1
    28   18   19 ar
    29   18   28 1
    30   19   29 1
    31   20   21 1
    32   20   30 1
    33   20   31 1
    34   21   32 1
    35   21   33 1
    36   21   34 1
@<TRIPOS>MOLECULE
ZINC83942595
   22    23     0     0     0
SMALL
USER_CHARGES

@<TRIPOS>ATOM
      1 C1         -0.0167    1.3803    0.0096 C.ar      1 <0>        -0.0635
      2 C2          1.1678    2.0944    0.0022 C.ar      1 <0>        -0.1352
      3 C3          2.3789    1.4289   -0.0135 C.ar      1 <0>         0.1262
      4 C4          2.4042    0.0314   -0.0212 C.ar      1 <0>        -0.0312
      5 C5          1.2052   -0.6818   -0.0131 C.ar      1 <0>        -0.0381
      6 C6          0.0021   -0.0041    0.0020 C.ar      1 <0>        -0.0478
      7 Cl1        -1.4907   -0.8902    0.0121 Cl        1 <0>        -0.0478
      8 C7          3.6957   -0.6878   -0.0384 C.2       1 <0>         0.1331
      9 N1          3.9323   -1.9921   -0.0533 N.2       1 <0>        -0.4834
     10 C8          5.1578   -2.4621   -0.0675 C.2       1 <0>         0.0406
     11 C9          6.2123   -1.6044   -0.0671 C.2       1 <0>        -0.1658
     12 S1          5.3592   -0.0326   -0.0527 S.3       1 <0>         0.0538
     13 C10         5.3952   -3.9502   -0.0837 C.3       1 <0>         0.1506
     14 O1          6.8007   -4.2081   -0.0967 O.3       1 <0>        -0.5715
     15 F1          3.5353    2.1273   -0.0216 F         1 <0>        -0.1193
     16 H1         -0.9605    1.9050    0.0260 H         1 <0>         0.1521
     17 H2          1.1462    3.1741    0.0082 H         1 <0>         0.1566
     18 H3          1.2179   -1.7617   -0.0194 H         1 <0>         0.1566
     19 H4          7.2717   -1.8140   -0.0773 H         1 <0>         0.2065
     20 H5          4.9517   -4.3986    0.8053 H         1 <0>         0.0678
     21 H6          4.9385   -4.3813   -0.9745 H         1 <0>         0.0679
     22 H7          7.0280   -5.1480   -0.1075 H         1 <0>         0.3919
@<TRIPOS>BOND
     1    1    6 ar
     2    1    2 ar
     3    1   16 1
     4    2    3 ar
     5    2   17 1
     6    3    4 ar
     7    3   15 1
     8    4    5 ar
     9    4    8 1
    10    5    6 ar
    11    5   18 1
    12    6    7 1
    13    8   12 1
    14    8    9 2
    15    9   10 1
    16   10   11 2
    17   10   13 1
    18   11   12 1
    19   11   19 1
    20   13   14 1
    21   13   20 1
    22   13   21 1
    23   14   22 1
@<TRIPOS>MOLECULE
ZINC11566543
   36    37     0     0     0
SMALL
USER_CHARGES
[4-(4-tert-butylthiazol-2-yl)phenyl]methanamine
@<TRIPOS>ATOM
      1 C1         -2.8142    0.8493    1.4100 C.3       1 <0>        -0.1400
      2 C2         -2.4771    1.3888    0.0185 C.3       1 <0>        -0.0015
      3 C3         -3.4546    2.5083   -0.3450 C.3       1 <0>        -0.1279
      4 C4         -2.5906    0.2596   -1.0076 C.3       1 <0>        -0.1432
      5 C5         -1.0705    1.9297    0.0166 C.2       1 <0>         0.0678
      6 C6         -0.0126    1.0758    0.0080 C.2       1 <0>        -0.1733
      7 S1          1.3481    2.2365    0.0012 S.3       1 <0>         0.0326
      8 C7          0.3620    3.7279    0.0186 C.2       1 <0>         0.1055
      9 N1         -0.8647    3.2257    0.0277 N.2       1 <0>        -0.4670
     10 C8          0.7976    5.1410    0.0221 C.ar      1 <0>         0.0407
     11 C9         -0.1492    6.1661    0.0313 C.ar      1 <0>        -0.0756
     12 C10         0.2639    7.4825    0.0389 C.ar      1 <0>        -0.0882
     13 C11         1.6133    7.7872    0.0276 C.ar      1 <0>        -0.1654
     14 C12         2.5570    6.7756    0.0131 C.ar      1 <0>        -0.0851
     15 C13         2.1572    5.4552    0.0103 C.ar      1 <0>        -0.0970
     16 C14         2.0573    9.2274    0.0305 C.3       1 <0>         0.0516
     17 H1         -2.7333    1.6537    2.1410 H         1 <0>         0.0568
     18 H2         -3.8315    0.4580    1.4113 H         1 <0>         0.0682
     19 H3         -2.1178    0.0517    1.6689 H         1 <0>         0.0578
     20 H4         -3.2144    2.8927   -1.3363 H         1 <0>         0.0536
     21 H5         -4.4719    2.1171   -0.3436 H         1 <0>         0.0578
     22 H6         -3.3737    3.3128    0.3861 H         1 <0>         0.0617
     23 H7         -1.8943   -0.5380   -0.7487 H         1 <0>         0.0589
     24 H8         -3.6080   -0.1317   -1.0062 H         1 <0>         0.0691
     25 H9         -2.3505    0.6439   -1.9989 H         1 <0>         0.0577
     26 H10         0.0021   -0.0041    0.0020 H         1 <0>         0.2045
     27 H11        -1.2029    5.9295    0.0360 H         1 <0>         0.1478
     28 H12        -0.4678    8.2768    0.0494 H         1 <0>         0.1399
     29 H13         3.6090    7.0201    0.0036 H         1 <0>         0.1404
     30 H14         2.8948    4.6664   -0.0014 H         1 <0>         0.1393
     31 H15         1.3189    9.8341    0.5548 H         1 <0>         0.1398
     32 H16         3.0198    9.3098    0.5353 H         1 <0>         0.1426
     33 H17         2.4847   10.6664   -1.3783 H         1 <0>         0.4402
     34 H18         2.8188    9.1160   -1.8789 H         1 <0>         0.4368
     35 N2          2.1639    9.6997   -1.3612 N.4       1 <0>        -0.6463
     36 H19         1.2410    9.6451   -1.8078 H         1 <0>         0.4391
@<TRIPOS>BOND
     1    1    2 1
     2    1   17 1
     3    1   18 1
     4    1   19 1
     5    2    3 1
     6    2    4 1
     7    2    5 1
     8    3   20 1
     9    3   21 1
    10    3   22 1
    11    4   23 1
    12    4   24 1
    13    4   25 1
    14    5    9 1
    15    5    6 2
    16    6    7 1
    17    6   26 1
    18    7    8 1
    19    8    9 2
    20    8   10 1
    21   10   15 ar
    22   10   11 ar
    23   11   12 ar
    24   11   27 1
    25   12   13 ar
    26   12   28 1
    27   13   14 ar
    28   13   16 1
    29   14   15 ar
    30   14   29 1
    31   15   30 1
    32   16   31 1
    33   16   32 1
    34   16   35 1
    35   33   35 1
    36   34   35 1
    37   35   36 1
@<TRIPOS>MOLECULE
ZINC11566542
   33    34     0     0     0
SMALL
USER_CHARGES
[4-(4-isopropylthiazol-2-yl)phenyl]methanamine
@<TRIPOS>ATOM
      1 C1         -0.0127    1.0858    0.0080 C.3       1 <0>        -0.1436
      2 C2         -0.7288    1.5792    1.2668 C.3       1 <0>        -0.0280
      3 C3          0.0111    1.0724    2.5063 C.3       1 <0>        -0.1494
      4 C4         -2.1427    1.0576    1.2775 C.2       1 <0>         0.0622
      5 C5         -2.4069   -0.1833    1.7661 C.2       1 <0>        -0.1731
      6 S1         -4.1790   -0.2578    1.5361 S.3       1 <0>         0.0338
      7 C6         -4.3724    1.3637    0.8080 C.2       1 <0>         0.1068
      8 N1         -3.1200    1.7982    0.8103 N.2       1 <0>        -0.4736
      9 C7         -5.5989    2.0383    0.3316 C.ar      1 <0>         0.0398
     10 C8         -5.5277    3.3243   -0.2055 C.ar      1 <0>        -0.0756
     11 C9         -6.6752    3.9466   -0.6522 C.ar      1 <0>        -0.0882
     12 C10        -7.8960    3.3021   -0.5598 C.ar      1 <0>        -0.1652
     13 C11        -7.9741    2.0291   -0.0235 C.ar      1 <0>        -0.0851
     14 C12        -6.8334    1.3940    0.4224 C.ar      1 <0>        -0.0966
     15 C13        -9.1461    3.9898   -1.0449 C.3       1 <0>         0.0517
     16 H1          0.0021   -0.0041    0.0020 H         1 <0>         0.0573
     17 H2          1.0099    1.4631    0.0003 H         1 <0>         0.0676
     18 H3         -0.5399    1.4469   -0.8751 H         1 <0>         0.0565
     19 H4         -0.7436    2.6691    1.2728 H         1 <0>         0.0889
     20 H5          0.0259   -0.0175    2.5003 H         1 <0>         0.0595
     21 H6          1.0337    1.4497    2.4986 H         1 <0>         0.0693
     22 H7         -0.4990    1.4239    3.4031 H         1 <0>         0.0584
     23 H8         -1.7336   -0.9196    2.1794 H         1 <0>         0.2058
     24 H9         -4.5760    3.8301   -0.2744 H         1 <0>         0.1479
     25 H10        -6.6210    4.9404   -1.0715 H         1 <0>         0.1402
     26 H11        -8.9301    1.5317    0.0465 H         1 <0>         0.1406
     27 H12        -6.8957    0.4004    0.8411 H         1 <0>         0.1395
     28 H13        -8.8951    4.6654   -1.8626 H         1 <0>         0.1399
     29 H14        -9.8585    3.2433   -1.3960 H         1 <0>         0.1427
     30 H15       -10.5831    5.2266   -0.2427 H         1 <0>         0.4403
     31 H16        -9.9252    4.1624    0.8529 H         1 <0>         0.4368
     32 N2         -9.7239    4.7721    0.0621 N.4       1 <0>        -0.6463
     33 H17        -9.0510    5.4900    0.3553 H         1 <0>         0.4392
@<TRIPOS>BOND
     1    1    2 1
     2    1   16 1
     3    1   17 1
     4    1   18 1
     5    2    3 1
     6    2    4 1
     7    2   19 1
     8    3   20 1
     9    3   21 1
    10    3   22 1
    11    4    8 1
    12    4    5 2
    13    5    6 1
    14    5   23 1
    15    6    7 1
    16    7    8 2
    17    7    9 1
    18    9   14 ar
    19    9   10 ar
    20   10   11 ar
    21   10   24 1
    22   11   12 ar
    23   11   25 1
    24   12   13 ar
    25   12   15 1
    26   13   14 ar
    27   13   26 1
    28   14   27 1
    29   15   28 1
    30   15   29 1
    31   15   32 1
    32   30   32 1
    33   31   32 1
    34   32   33 1
@<TRIPOS>MOLECULE
ZINC40999556
   31    32     0     0     0
SMALL
USER_CHARGES

@<TRIPOS>ATOM
      1 C1         -0.0187    1.5258    0.0104 C.3       1 <0>        -0.1553
      2 C2          0.0021   -0.0041    0.0020 C.3       1 <0>         0.0523
      3 O1          0.6932   -0.4774    1.1597 O.3       1 <0>        -0.3114
      4 C3          0.8020   -1.8243    1.3057 C.ar      1 <0>         0.1399
      5 C4          0.2586   -2.6720    0.3495 C.ar      1 <0>        -0.1758
      6 C5          0.3659   -4.0427    0.4931 C.ar      1 <0>        -0.0775
      7 C6          1.0143   -4.5775    1.5878 C.ar      1 <0>        -0.1025
      8 C7          1.5639   -3.7333    2.5535 C.ar      1 <0>        -0.0026
      9 C8          1.4594   -2.3503    2.4048 C.ar      1 <0>        -0.1230
     10 C9          2.2589   -4.3028    3.7280 C.2       1 <0>         0.1845
     11 N1          2.4719   -5.5720    4.0458 N.2       1 <0>        -0.5060
     12 C10         3.1155   -5.9015    5.1409 C.2       1 <0>        -0.0142
     13 C11         3.5774   -4.9308    5.9733 C.2       1 <0>        -0.1838
     14 S1          3.0451   -3.4648    5.0979 S.3       1 <0>         0.1028
     15 C12         3.3418   -7.3533    5.4755 C.3       1 <0>         0.0798
     16 N2          2.1645   -7.8837    6.1759 N.4       1 <0>        -0.6350
     17 H1          1.0039    1.9031    0.0027 H         1 <0>         0.0689
     18 H2         -0.5459    1.8868   -0.8726 H         1 <0>         0.0840
     19 H3         -0.5289    1.8773    0.9072 H         1 <0>         0.0686
     20 H4         -1.0205   -0.3814    0.0098 H         1 <0>         0.0669
     21 H5          0.5123   -0.3556   -0.8948 H         1 <0>         0.0671
     22 H6         -0.2498   -2.2591   -0.5091 H         1 <0>         0.1399
     23 H7         -0.0593   -4.6971   -0.2535 H         1 <0>         0.1399
     24 H8          1.0961   -5.6489    1.6972 H         1 <0>         0.1366
     25 H9          1.8866   -1.6919    3.1467 H         1 <0>         0.1365
     26 H10         4.1195   -5.0201    6.9031 H         1 <0>         0.2110
     27 H11         3.5025   -7.9172    4.5566 H         1 <0>         0.1473
     28 H12         4.2184   -7.4460    6.1167 H         1 <0>         0.1483
     29 H13         2.0157   -7.3617    7.0265 H         1 <0>         0.4337
     30 H14         1.3530   -7.7979    5.5823 H         1 <0>         0.4385
     31 H15         2.3160   -8.8558    6.3999 H         1 <0>         0.4403
@<TRIPOS>BOND
     1    1    2 1
     2    1   17 1
     3    1   18 1
     4    1   19 1
     5    2    3 1
     6    2   20 1
     7    2   21 1
     8    3    4 1
     9    4    9 ar
    10    4    5 ar
    11    5    6 ar
    12    5   22 1
    13    6    7 ar
    14    6   23 1
    15    7    8 ar
    16    7   24 1
    17    8    9 ar
    18    8   10 1
    19    9   25 1
    20   10   14 1
    21   10   11 2
    22   11   12 1
    23   12   13 2
    24   12   15 1
    25   13   14 1
    26   13   26 1
    27   15   16 1
    28   15   27 1
    29   15   28 1
    30   16   29 1
    31   16   30 1
    32   16   31 1
@<TRIPOS>MOLECULE
ZINC41010132
   39    41     0     0     0
SMALL
USER_CHARGES

@<TRIPOS>ATOM
      1 C1          0.1707    1.3532    0.1009 C.3       1 <0>        -0.1841
      2 C2          0.1244   -0.1750    0.0443 C.3       1 <0>         0.0245
      3 C3          0.8554   -0.7527    1.2580 C.3       1 <0>        -0.1855
      4 N1         -1.2744   -0.6234    0.0561 N.4       1 <0>        -0.5066
      5 C4         -1.3228   -2.0812   -0.1186 C.3       1 <0>         0.0742
      6 C5         -2.7579   -2.5411   -0.1066 C.2       1 <0>        -0.0122
      7 C6         -3.4291   -2.7096   -1.2775 C.2       1 <0>        -0.1824
      8 S1         -5.0240   -3.2443   -0.6701 S.3       1 <0>         0.0943
      9 C7         -4.6244   -3.1854    1.0717 C.2       1 <0>         0.1881
     10 N2         -3.3601   -2.7848    1.0330 N.2       1 <0>        -0.4998
     11 C8         -5.4708   -3.5026    2.2378 C.ar      1 <0>        -0.0397
     12 C9         -6.7607   -3.0017    2.3248 C.ar      1 <0>        -0.0582
     13 C10        -7.5630   -3.2971    3.4199 C.ar      1 <0>        -0.1273
     14 C11        -7.1083   -4.0832    4.4359 C.ar      1 <0>        -0.0613
     15 C12        -5.8070   -4.6123    4.3899 C.ar      1 <0>        -0.0574
     16 C13        -4.9766   -4.3274    3.2787 C.ar      1 <0>        -0.0117
     17 C14        -3.6810   -4.8600    3.2314 C.ar      1 <0>        -0.1148
     18 C15        -3.2382   -5.6489    4.2501 C.ar      1 <0>        -0.0985
     19 C16        -4.0557   -5.9358    5.3410 C.ar      1 <0>        -0.1141
     20 C17        -5.3148   -5.4250    5.4259 C.ar      1 <0>        -0.0948
     21 H1          1.2086    1.6859    0.0922 H         1 <0>         0.1078
     22 H2         -0.3501    1.7647   -0.7637 H         1 <0>         0.0815
     23 H3         -0.3137    1.6978    1.0146 H         1 <0>         0.0814
     24 H4          0.6088   -0.5196   -0.8693 H         1 <0>         0.1402
     25 H5          0.3710   -0.4081    2.1717 H         1 <0>         0.0825
     26 H6          0.8224   -1.8414    1.2177 H         1 <0>         0.0816
     27 H7          1.8933   -0.4200    1.2493 H         1 <0>         0.1066
     28 H8         -1.6995   -0.3759    0.9371 H         1 <0>         0.4294
     29 H9         -0.8636   -2.3485   -1.0703 H         1 <0>         0.1451
     30 H10        -0.7801   -2.5628    0.6947 H         1 <0>         0.1456
     31 H11        -3.0923   -2.5611   -2.2929 H         1 <0>         0.2096
     32 H12        -7.1455   -2.3754    1.5335 H         1 <0>         0.1314
     33 H13        -8.5647   -2.8962    3.4670 H         1 <0>         0.1391
     34 H14        -7.7489   -4.2998    5.2780 H         1 <0>         0.1396
     35 H15        -3.0368   -4.6463    2.3913 H         1 <0>         0.1268
     36 H16        -2.2395   -6.0580    4.2111 H         1 <0>         0.1264
     37 H17        -3.6816   -6.5641    6.1357 H         1 <0>         0.1306
     38 H18        -5.9374   -5.6547    6.2780 H         1 <0>         0.1361
     39 H19        -1.7768   -0.1775   -0.6968 H         1 <0>         0.4259
@<TRIPOS>BOND
     1    1    2 1
     2    1   21 1
     3    1   22 1
     4    1   23 1
     5    2    3 1
     6    2    4 1
     7    2   24 1
     8    3   25 1
     9    3   26 1
    10    3   27 1
    11    4    5 1
    12    4   28 1
    13    4   39 1
    14    5    6 1
    15    5   29 1
    16    5   30 1
    17    6   10 1
    18    6    7 2
    19    7    8 1
    20    7   31 1
    21    8    9 1
    22    9   10 2
    23    9   11 1
    24   11   16 ar
    25   11   12 ar
    26   12   13 ar
    27   12   32 1
    28   13   14 ar
    29   13   33 1
    30   14   15 ar
    31   14   34 1
    32   15   20 ar
    33   15   16 ar
    34   16   17 ar
    35   17   18 ar
    36   17   35 1
    37   18   19 ar
    38   18   36 1
    39   19   20 ar
    40   19   37 1
    41   20   38 1
@<TRIPOS>MOLECULE
ZINC41010121
   33    34     0     0     0
SMALL
USER_CHARGES

@<TRIPOS>ATOM
      1 C1         -0.0187    1.5258    0.0104 C.3       1 <0>        -0.1842
      2 C2          0.0021   -0.0041    0.0020 C.3       1 <0>         0.0243
      3 C3          0.7421   -0.5109    1.2415 C.3       1 <0>        -0.1853
      4 N1         -1.3761   -0.5125    0.0124 N.4       1 <0>        -0.5067
      5 C4         -1.3591   -1.9758   -0.1163 C.3       1 <0>         0.0738
      6 C5         -2.7729   -2.4974   -0.1056 C.2       1 <0>        -0.0140
      7 C6         -3.4210   -2.7315   -1.2773 C.2       1 <0>        -0.2013
      8 S1         -4.9987   -3.3160   -0.6707 S.3       1 <0>         0.1447
      9 C7         -4.6238   -3.1851    1.0726 C.2       1 <0>         0.1547
     10 N2         -3.3786   -2.7315    1.0351 N.2       1 <0>        -0.4956
     11 C8         -5.4720   -3.5023    2.2412 C.ar      1 <0>        -0.0203
     12 C9         -4.9799   -3.3197    3.5344 C.ar      1 <0>        -0.0420
     13 C10        -5.7757   -3.6172    4.6208 C.ar      1 <0>        -0.1030
     14 C11        -7.0611   -4.0970    4.4311 C.ar      1 <0>         0.0004
     15 C12        -7.5558   -4.2805    3.1514 C.ar      1 <0>        -0.0959
     16 C13        -6.7709   -3.9803    2.0556 C.ar      1 <0>        -0.0079
     17 Cl1        -7.3948   -4.2041    0.4510 Cl        1 <0>        -0.0158
     18 Cl2        -8.0558   -4.4701    5.8041 Cl        1 <0>        -0.0294
     19 H1          1.0039    1.9031    0.0027 H         1 <0>         0.1077
     20 H2         -0.5459    1.8868   -0.8726 H         1 <0>         0.0815
     21 H3         -0.5289    1.8773    0.9072 H         1 <0>         0.0813
     22 H4          0.5123   -0.3556   -0.8948 H         1 <0>         0.1402
     23 H5          1.7647   -0.1336    1.2338 H         1 <0>         0.1065
     24 H6          0.2319   -0.1594    2.1383 H         1 <0>         0.0823
     25 H7          0.7568   -1.6008    1.2356 H         1 <0>         0.0818
     26 H8         -1.8225   -0.2564    0.8803 H         1 <0>         0.4286
     27 H9         -0.8769   -2.2525   -1.0538 H         1 <0>         0.1448
     28 H10        -0.8062   -2.4075    0.7180 H         1 <0>         0.1455
     29 H11        -3.0783   -2.6008   -2.2930 H         1 <0>         0.2073
     30 H12        -3.9776   -2.9463    3.6841 H         1 <0>         0.1550
     31 H13        -5.3955   -3.4762    5.6218 H         1 <0>         0.1553
     32 H14        -8.5588   -4.6549    3.0098 H         1 <0>         0.1597
     33 H15        -1.8879   -0.1129   -0.7598 H         1 <0>         0.4260
@<TRIPOS>BOND
     1    1    2 1
     2    1   19 1
     3    1   20 1
     4    1   21 1
     5    2    3 1
     6    2    4 1
     7    2   22 1
     8    3   23 1
     9    3   24 1
    10    3   25 1
    11    4    5 1
    12    4   26 1
    13    4   33 1
    14    5    6 1
    15    5   27 1
    16    5   28 1
    17    6   10 1
    18    6    7 2
    19    7    8 1
    20    7   29 1
    21    8    9 1
    22    9   10 2
    23    9   11 1
    24   11   16 ar
    25   11   12 ar
    26   12   13 ar
    27   12   30 1
    28   13   14 ar
    29   13   31 1
    30   14   15 ar
    31   14   18 1
    32   15   16 ar
    33   15   32 1
    34   16   17 1
@<TRIPOS>MOLECULE
ZINC77436112
   24    25     0     0     0
SMALL
USER_CHARGES

@<TRIPOS>ATOM
      1 C1         -0.0173    1.4248    0.0099 C.3       1 <0>         0.0219
      2 O1          0.0021   -0.0041    0.0020 O.3       1 <0>        -0.2994
      3 C2          0.6056   -0.6069   -1.0554 C.ar      1 <0>         0.1596
      4 C3          1.1724    0.1643   -2.0615 C.ar      1 <0>        -0.1955
      5 C4          1.7852   -0.4435   -3.1362 C.ar      1 <0>        -0.0465
      6 C5          1.8364   -1.8364   -3.2127 C.ar      1 <0>        -0.0451
      7 C6          1.2663   -2.6090   -2.1998 C.ar      1 <0>        -0.0231
      8 C7          0.6592   -1.9938   -1.1247 C.ar      1 <0>        -0.0715
      9 Cl1        -0.0442   -2.9530    0.1397 Cl        1 <0>        -0.0422
     10 C8          2.4925   -2.4916   -4.3642 C.2       1 <0>         0.1144
     11 N1          2.6356   -3.7788   -4.6149 N.2       1 <0>        -0.4370
     12 C9          3.2707   -4.1432   -5.7297 C.2       1 <0>        -0.0566
     13 C10         3.7496   -3.1544   -6.5706 C.2       1 <0>        -0.2193
     14 S1          3.2873   -1.7450   -5.7756 S.3       1 <0>         0.1698
     15 C11         3.4576   -5.5587   -6.0561 C.2       1 <0>         0.4013
     16 O2          3.0320   -6.4150   -5.3089 O.2       1 <0>        -0.4343
     17 H1          1.0053    1.8021    0.0021 H         1 <0>         0.0613
     18 H2         -0.5445    1.7859   -0.8732 H         1 <0>         0.0613
     19 H3         -0.5275    1.7763    0.9067 H         1 <0>         0.1072
     20 H4          1.1326    1.2419   -2.0020 H         1 <0>         0.1481
     21 H5          2.2251    0.1573   -3.9184 H         1 <0>         0.1377
     22 H6          1.3037   -3.6869   -2.2558 H         1 <0>         0.1542
     23 H7          4.2819   -3.2603   -7.5043 H         1 <0>         0.2115
     24 H8          3.9740   -5.8403   -6.9618 H         1 <0>         0.1223
@<TRIPOS>BOND
     1    1    2 1
     2    1   17 1
     3    1   18 1
     4    1   19 1
     5    2    3 1
     6    3    8 ar
     7    3    4 ar
     8    4    5 ar
     9    4   20 1
    10    5    6 ar
    11    5   21 1
    12    6    7 ar
    13    6   10 1
    14    7    8 ar
    15    7   22 1
    16    8    9 1
    17   10   14 1
    18   10   11 2
    19   11   12 1
    20   12   13 2
    21   12   15 1
    22   13   14 1
    23   13   23 1
    24   15   16 2
    25   15   24 1
@<TRIPOS>MOLECULE
ZINC35386287
   35    36     0     0     0
SMALL
USER_CHARGES

@<TRIPOS>ATOM
      1 C1         -0.0184    1.5028    0.0103 C.3       1 <0>        -0.1250
      2 C2          0.0021   -0.0041    0.0020 C.ar      1 <0>        -0.0511
      3 C3          0.0057   -0.6862   -1.2016 C.ar      1 <0>        -0.1196
      4 C4          0.0249   -2.0657   -1.2161 C.ar      1 <0>        -0.0802
      5 C5          0.0405   -2.7729   -0.0132 C.ar      1 <0>        -0.0445
      6 C6          0.0368   -2.0788    1.1974 C.ar      1 <0>        -0.0580
      7 C7          0.0229   -0.6992    1.1980 C.ar      1 <0>        -0.1228
      8 C8          0.0606   -4.2514   -0.0214 C.2       1 <0>         0.1824
      9 N1          0.0718   -5.0983    0.9984 N.2       1 <0>        -0.5043
     10 C9          0.0895   -6.3962    0.8061 C.2       1 <0>        -0.0003
     11 C10         0.0966   -6.8936   -0.4593 C.2       1 <0>        -0.1807
     12 S1          0.0683   -5.3786   -1.4093 S.3       1 <0>         0.0710
     13 C11         0.1024   -7.3339    1.9857 C.3       1 <0>         0.0757
     14 N2          1.4849   -7.5249    2.4443 N.4       1 <0>        -0.5083
     15 C12         1.4975   -8.4389    3.5942 C.3       1 <0>         0.0144
     16 C13         2.9374   -8.6378    4.0719 C.3       1 <0>        -0.2167
     17 C14         2.9503   -9.5755    5.2515 C.2       1 <0>         0.4975
     18 O1          1.9048  -10.0416    5.6713 O.co2     1 <0>        -0.6866
     19 O2          4.0063   -9.8681    5.7862 O.co2     1 <0>        -0.6717
     20 H1          1.0042    1.8801    0.0026 H         1 <0>         0.0793
     21 H2         -0.5455    1.8639   -0.8728 H         1 <0>         0.0729
     22 H3         -0.5286    1.8543    0.9071 H         1 <0>         0.0732
     23 H4         -0.0068   -0.1377   -2.1319 H         1 <0>         0.1352
     24 H5          0.0273   -2.5970   -2.1564 H         1 <0>         0.1281
     25 H6          0.0485   -2.6203    2.1317 H         1 <0>         0.1365
     26 H7          0.0244   -0.1607    2.1343 H         1 <0>         0.1351
     27 H8          0.1111   -7.9193   -0.7971 H         1 <0>         0.2104
     28 H9         -0.4931   -6.9093    2.7939 H         1 <0>         0.1432
     29 H10        -0.3185   -8.2951    1.6905 H         1 <0>         0.1443
     30 H11         2.0362   -7.9179    1.6962 H         1 <0>         0.4199
     31 H12         0.9020   -8.0144    4.4024 H         1 <0>         0.1319
     32 H13         1.0766   -9.4001    3.2990 H         1 <0>         0.1319
     33 H14         3.5329   -9.0624    3.2637 H         1 <0>         0.0809
     34 H15         3.3582   -7.6767    4.3671 H         1 <0>         0.0811
     35 H16         1.8745   -6.6352    2.7176 H         1 <0>         0.4249
@<TRIPOS>BOND
     1    1    2 1
     2    1   20 1
     3    1   21 1
     4    1   22 1
     5    2    7 ar
     6    2    3 ar
     7    3    4 ar
     8    3   23 1
     9    4    5 ar
    10    4   24 1
    11    5    6 ar
    12    5    8 1
    13    6    7 ar
    14    6   25 1
    15    7   26 1
    16    8   12 1
    17    8    9 2
    18    9   10 1
    19   10   11 2
    20   10   13 1
    21   11   12 1
    22   11   27 1
    23   13   14 1
    24   13   28 1
    25   13   29 1
    26   14   15 1
    27   14   30 1
    28   14   35 1
    29   15   16 1
    30   15   31 1
    31   15   32 1
    32   16   17 1
    33   16   33 1
    34   16   34 1
    35   17   18 2
    36   17   19 1
@<TRIPOS>MOLECULE
ZINC70840547
   27    28     0     0     0
SMALL
USER_CHARGES

@<TRIPOS>ATOM
      1 C1         -0.0187    1.5258    0.0104 C.3       1 <0>        -0.1750
      2 C2          0.0021   -0.0041    0.0020 C.3       1 <0>         0.1099
      3 H1          0.5123   -0.3556   -0.8948 H         1 <0>         0.1580
      4 C3          0.7309   -0.5033    1.2229 C.2       1 <0>         0.0374
      5 C4          0.1265   -1.3832    2.0641 C.2       1 <0>        -0.2672
      6 S1          1.4141   -1.6112    3.2842 S.3       1 <0>         0.1428
      7 C5          2.6139   -0.5124    2.5426 C.2       1 <0>         0.1774
      8 N1          1.9527   -0.0931    1.4727 N.2       1 <0>        -0.4928
      9 C6          3.9780   -0.1688    2.9968 C.ar      1 <0>        -0.0704
     10 C7          4.7557    0.7282    2.2631 C.ar      1 <0>        -0.0215
     11 C8          6.0277    1.0451    2.6916 C.ar      1 <0>        -0.1190
     12 C9          6.5353    0.4756    3.8478 C.ar      1 <0>         0.0202
     13 C10         5.7706   -0.4148    4.5811 C.ar      1 <0>        -0.1425
     14 C11         4.4922   -0.7364    4.1658 C.ar      1 <0>         0.1456
     15 F1          3.7437   -1.6010    4.8851 F         1 <0>        -0.1170
     16 Cl1         8.1378    0.8802    4.3789 Cl        1 <0>        -0.0271
     17 N2         -1.3761   -0.5125    0.0124 N.4       1 <0>        -0.6350
     18 H2          1.0039    1.9031    0.0027 H         1 <0>         0.1150
     19 H3         -0.5459    1.8868   -0.8726 H         1 <0>         0.0884
     20 H4         -0.5289    1.8773    0.9072 H         1 <0>         0.0807
     21 H5         -0.8585   -1.8229    2.0106 H         1 <0>         0.1990
     22 H6          4.3622    1.1732    1.3612 H         1 <0>         0.1575
     23 H7          6.6299    1.7390    2.1238 H         1 <0>         0.1567
     24 H8          6.1719   -0.8556    5.4817 H         1 <0>         0.1625
     25 H9         -1.3624   -1.5214    0.0069 H         1 <0>         0.4369
     26 H10        -1.8484   -0.1871    0.8426 H         1 <0>         0.4352
     27 H11        -1.8641   -0.1783   -0.8050 H         1 <0>         0.4442
@<TRIPOS>BOND
     1    1    2 1
     2    1   18 1
     3    1   19 1
     4    1   20 1
     5    2    3 1
     6    2    4 1
     7    2   17 1
     8    4    8 1
     9    4    5 2
    10    5    6 1
    11    5   21 1
    12    6    7 1
    13    7    8 2
    14    7    9 1
    15    9   14 ar
    16    9   10 ar
    17   10   11 ar
    18   10   22 1
    19   11   12 ar
    20   11   23 1
    21   12   13 ar
    22   12   16 1
    23   13   14 ar
    24   13   24 1
    25   14   15 1
    26   17   25 1
    27   17   26 1
    28   17   27 1
@<TRIPOS>MOLECULE
ZINC70840551
   27    28     0     0     0
SMALL
USER_CHARGES

@<TRIPOS>ATOM
      1 C1         -0.0187    1.5258    0.0104 C.3       1 <0>        -0.1774
      2 C2          0.0021   -0.0041    0.0020 C.3       1 <0>         0.1176
      3 H1         -1.0205   -0.3814    0.0098 H         1 <0>         0.1537
      4 C3          0.7309   -0.5033    1.2229 C.2       1 <0>        -0.0106
      5 C4          0.1265   -1.3832    2.0641 C.2       1 <0>        -0.1822
      6 S1          1.4141   -1.6112    3.2842 S.3       1 <0>         0.1353
      7 C5          2.6139   -0.5124    2.5426 C.2       1 <0>         0.1638
      8 N1          1.9527   -0.0931    1.4727 N.2       1 <0>        -0.5062
      9 C6          3.9780   -0.1688    2.9968 C.ar      1 <0>        -0.0666
     10 C7          4.7557    0.7282    2.2631 C.ar      1 <0>        -0.0262
     11 C8          6.0277    1.0451    2.6916 C.ar      1 <0>        -0.1192
     12 C9          6.5353    0.4756    3.8478 C.ar      1 <0>         0.0183
     13 C10         5.7706   -0.4148    4.5811 C.ar      1 <0>        -0.1414
     14 C11         4.4922   -0.7364    4.1658 C.ar      1 <0>         0.1446
     15 F1          3.7437   -1.6010    4.8851 F         1 <0>        -0.1162
     16 Cl1         8.1378    0.8802    4.3789 Cl        1 <0>        -0.0273
     17 N2          0.6897   -0.4778   -1.2066 N.4       1 <0>        -0.6341
     18 H2          1.0039    1.9031    0.0027 H         1 <0>         0.0898
     19 H3         -0.5459    1.8868   -0.8726 H         1 <0>         0.0867
     20 H4         -0.5289    1.8773    0.9072 H         1 <0>         0.1038
     21 H5         -0.8585   -1.8229    2.0106 H         1 <0>         0.2114
     22 H6          4.3622    1.1732    1.3612 H         1 <0>         0.1543
     23 H7          6.6299    1.7390    2.1238 H         1 <0>         0.1555
     24 H8          6.1719   -0.8556    5.4817 H         1 <0>         0.1623
     25 H9          0.2017   -0.1436   -2.0240 H         1 <0>         0.4376
     26 H10         1.6363   -0.1286   -1.2138 H         1 <0>         0.4378
     27 H11         0.7033   -1.4867   -1.2121 H         1 <0>         0.4349
@<TRIPOS>BOND
     1    1    2 1
     2    1   18 1
     3    1   19 1
     4    1   20 1
     5    2    3 1
     6    2    4 1
     7    2   17 1
     8    4    8 1
     9    4    5 2
    10    5    6 1
    11    5   21 1
    12    6    7 1
    13    7    8 2
    14    7    9 1
    15    9   14 ar
    16    9   10 ar
    17   10   11 ar
    18   10   22 1
    19   11   12 ar
    20   11   23 1
    21   12   13 ar
    22   12   16 1
    23   13   14 ar
    24   13   24 1
    25   14   15 1
    26   17   25 1
    27   17   26 1
    28   17   27 1
@<TRIPOS>MOLECULE
ZINC87590125
   33    35     0     0     0
SMALL
USER_CHARGES

@<TRIPOS>ATOM
      1 C1         -0.0167    1.3793    0.0096 C.ar      1 <0>        -0.0914
      2 C2          1.1684    2.0932    0.0021 C.ar      1 <0>        -0.1161
      3 C3          2.3774    1.4288   -0.0130 C.ar      1 <0>        -0.0888
      4 C4          2.4033    0.0336   -0.0208 C.ar      1 <0>        -0.0312
      5 C5          1.2044   -0.6806   -0.0131 C.ar      1 <0>        -0.0674
      6 C6          0.0021   -0.0041    0.0020 C.ar      1 <0>        -0.1210
      7 C7          3.6955   -0.6850   -0.0375 C.2       1 <0>         0.1724
      8 N1          3.9328   -1.9891   -0.0523 N.2       1 <0>        -0.4928
      9 C8          5.1581   -2.4586   -0.0660 C.2       1 <0>         0.0642
     10 C9          6.2126   -1.6003   -0.0651 C.2       1 <0>        -0.2085
     11 S1          5.3587   -0.0288   -0.0511 S.3       1 <0>         0.0344
     12 C10         5.3961   -3.9466   -0.0821 C.3       1 <0>         0.0923
     13 N2          5.3640   -4.4625    1.2929 N.3       1 <0>        -0.4730
     14 C11         6.7213   -4.5225    1.8668 C.3       1 <0>        -0.0090
     15 C12         6.3431   -5.8793    2.4772 C.3       1 <0>        -0.0198
     16 C13         5.3548   -5.9373    1.3040 C.3       1 <0>        -0.0043
     17 N3          5.7051   -5.7881    3.7972 N.4       1 <0>        -0.6149
     18 H1         -0.9605    1.9041    0.0260 H         1 <0>         0.1327
     19 H2          1.1469    3.1730    0.0078 H         1 <0>         0.1351
     20 H3          3.3018    1.9873   -0.0192 H         1 <0>         0.1272
     21 H4          1.2177   -1.7605   -0.0194 H         1 <0>         0.1340
     22 H5         -0.9265   -0.5556    0.0083 H         1 <0>         0.1336
     23 H6          7.2721   -1.8094   -0.0745 H         1 <0>         0.1960
     24 H7          4.6181   -4.4326   -0.6708 H         1 <0>         0.1030
     25 H8          6.3701   -4.1540   -0.5254 H         1 <0>         0.0768
     26 H9          7.5080   -4.5886    1.1152 H         1 <0>         0.1154
     27 H10         6.9125   -3.7496    2.6112 H         1 <0>         0.1091
     28 H11         7.1357   -6.6262    2.4304 H         1 <0>         0.1638
     29 H12         4.3878   -6.3634    1.5714 H         1 <0>         0.1127
     30 H13         5.7768   -6.3809    0.4022 H         1 <0>         0.1157
     31 H14         4.8552   -5.2493    3.7235 H         1 <0>         0.4415
     32 H15         5.4876   -6.7154    4.1304 H         1 <0>         0.4397
     33 H16         6.3342   -5.3372    4.4444 H         1 <0>         0.4387
@<TRIPOS>BOND
     1    1    6 ar
     2    1    2 ar
     3    1   18 1
     4    2    3 ar
     5    2   19 1
     6    3    4 ar
     7    3   20 1
     8    4    5 ar
     9    4    7 1
    10    5    6 ar
    11    5   21 1
    12    6   22 1
    13    7   11 1
    14    7    8 2
    15    8    9 1
    16    9   10 2
    17    9   12 1
    18   10   11 1
    19   10   23 1
    20   12   13 1
    21   12   24 1
    22   12   25 1
    23   13   16 1
    24   13   14 1
    25   14   15 1
    26   14   26 1
    27   14   27 1
    28   15   16 1
    29   15   17 1
    30   15   28 1
    31   16   29 1
    32   16   30 1
    33   17   31 1
    34   17   32 1
    35   17   33 1
@<TRIPOS>MOLECULE
ZINC40429836
   36    37     0     0     0
SMALL
USER_CHARGES

@<TRIPOS>ATOM
      1 C1         -0.0187    1.5258    0.0104 C.3       1 <0>        -0.1566
      2 C2          0.0021   -0.0041    0.0020 C.3       1 <0>        -0.1515
      3 C3         -1.4333   -0.5336    0.0129 C.3       1 <0>        -0.0103
      4 N1         -1.4134   -2.0025    0.0048 N.4       1 <0>        -0.5087
      5 C4         -2.7915   -2.5110    0.0152 C.3       1 <0>         0.0779
      6 C5         -2.7711   -4.0178    0.0069 C.2       1 <0>        -0.0115
      7 C6         -2.8583   -4.7064    1.1760 C.2       1 <0>        -0.1761
      8 S1         -2.7866   -6.3890    0.5739 S.3       1 <0>         0.1107
      9 C7         -2.6487   -5.9924   -1.1641 C.2       1 <0>         0.1683
     10 N2         -2.6745   -4.6675   -1.1290 N.2       1 <0>        -0.4989
     11 C8         -2.5406   -6.8985   -2.3277 C.ar      1 <0>        -0.0063
     12 C9         -2.4351   -6.3742   -3.6167 C.ar      1 <0>        -0.0665
     13 C10        -2.3346   -7.2250   -4.6981 C.ar      1 <0>        -0.0685
     14 C11        -2.3386   -8.5952   -4.5068 C.ar      1 <0>        -0.1511
     15 C12        -2.4434   -9.1214   -3.2315 C.ar      1 <0>        -0.0637
     16 C13        -2.5378   -8.2814   -2.1411 C.ar      1 <0>        -0.0868
     17 C14        -2.2289   -9.5186   -5.6927 C.3       1 <0>         0.5058
     18 F1         -0.8809   -9.7925   -5.9473 F         1 <0>        -0.1704
     19 F2         -2.9036  -10.7129   -5.4178 F         1 <0>        -0.1711
     20 F3         -2.8005   -8.9075   -6.8139 F         1 <0>        -0.1717
     21 H1          1.0039    1.9031    0.0027 H         1 <0>         0.0778
     22 H2         -0.5459    1.8868   -0.8726 H         1 <0>         0.0677
     23 H3         -0.5289    1.8773    0.9072 H         1 <0>         0.0675
     24 H4          0.5123   -0.3556   -0.8948 H         1 <0>         0.0864
     25 H5          0.5293   -0.3651    0.8851 H         1 <0>         0.0862
     26 H6         -1.9435   -0.1821    0.9097 H         1 <0>         0.1334
     27 H7         -1.9605   -0.1726   -0.8702 H         1 <0>         0.1335
     28 H8         -0.9411   -2.3279   -0.8254 H         1 <0>         0.4312
     29 H9         -3.3017   -2.1594    0.9120 H         1 <0>         0.1467
     30 H10        -3.3187   -2.1499   -0.8678 H         1 <0>         0.1459
     31 H11        -2.9462   -4.3392    2.1878 H         1 <0>         0.2126
     32 H12        -2.4325   -5.3047   -3.7673 H         1 <0>         0.1475
     33 H13        -2.2529   -6.8205   -5.6961 H         1 <0>         0.1505
     34 H14        -2.4463  -10.1919   -3.0889 H         1 <0>         0.1521
     35 H15        -2.6143   -8.6933   -1.1457 H         1 <0>         0.1416
     36 H16        -0.9254   -2.3367    0.8222 H         1 <0>         0.4263
@<TRIPOS>BOND
     1    1    2 1
     2    1   21 1
     3    1   22 1
     4    1   23 1
     5    2    3 1
     6    2   24 1
     7    2   25 1
     8    3    4 1
     9    3   26 1
    10    3   27 1
    11    4    5 1
    12    4   28 1
    13    4   36 1
    14    5    6 1
    15    5   29 1
    16    5   30 1
    17    6   10 1
    18    6    7 2
    19    7    8 1
    20    7   31 1
    21    8    9 1
    22    9   10 2
    23    9   11 1
    24   11   16 ar
    25   11   12 ar
    26   12   13 ar
    27   12   32 1
    28   13   14 ar
    29   13   33 1
    30   14   15 ar
    31   14   17 1
    32   15   16 ar
    33   15   34 1
    34   16   35 1
    35   17   18 1
    36   17   19 1
    37   17   20 1
@<TRIPOS>MOLECULE
ZINC94523934
   40    42     0     0     0
SMALL
USER_CHARGES

@<TRIPOS>ATOM
      1 C1         -0.0187    1.5258    0.0104 C.3       1 <0>        -0.1856
      2 C2          0.0021   -0.0041    0.0020 C.3       1 <0>         0.0239
      3 C3          0.7421   -0.5109    1.2415 C.3       1 <0>        -0.1841
      4 N1         -1.3761   -0.5125    0.0124 N.4       1 <0>        -0.5063
      5 C4         -2.0500   -0.1262   -1.2343 C.3       1 <0>         0.0748
      6 C5         -3.4638   -0.6478   -1.2236 C.2       1 <0>        -0.0063
      7 C6         -4.4822    0.1535   -0.8119 C.2       1 <0>        -0.1862
      8 S1         -5.8726   -0.9545   -1.0056 S.3       1 <0>         0.0888
      9 C7         -4.9483   -2.3598   -1.6120 C.2       1 <0>         0.1900
     10 N2         -3.7148   -1.8743   -1.6168 N.2       1 <0>        -0.5112
     11 C8         -5.4307   -3.7006   -2.0070 C.ar      1 <0>        -0.0510
     12 C9         -4.5279   -4.6667   -2.4532 C.ar      1 <0>        -0.0566
     13 C10        -4.9844   -5.9158   -2.8204 C.ar      1 <0>        -0.1167
     14 C11        -6.3340   -6.2114   -2.7473 C.ar      1 <0>        -0.0088
     15 C12        -7.2342   -5.2579   -2.3063 C.ar      1 <0>        -0.1203
     16 C13        -6.7899   -4.0072   -1.9298 C.ar      1 <0>        -0.0763
     17 C14        -6.8256   -7.5777   -3.1505 C.3       1 <0>        -0.1362
     18 C15        -8.3386   -7.7852   -3.2429 C.3       1 <0>        -0.1721
     19 C16        -7.5499   -8.4092   -2.0898 C.3       1 <0>        -0.1624
     20 H1          1.0039    1.9031    0.0027 H         1 <0>         0.1072
     21 H2         -0.5459    1.8868   -0.8726 H         1 <0>         0.0814
     22 H3         -0.5289    1.8773    0.9072 H         1 <0>         0.0821
     23 H4          0.5123   -0.3556   -0.8948 H         1 <0>         0.1405
     24 H5          0.2319   -0.1594    2.1383 H         1 <0>         0.0812
     25 H6          0.7568   -1.6008    1.2356 H         1 <0>         0.0817
     26 H7          1.7647   -0.1336    1.2338 H         1 <0>         0.1078
     27 H8         -1.3629   -1.5185    0.0898 H         1 <0>         0.4311
     28 H9         -2.0643    0.9605   -1.3179 H         1 <0>         0.1458
     29 H10        -1.5132   -0.5489   -2.0836 H         1 <0>         0.1445
     30 H11        -4.4580    1.1756   -0.4640 H         1 <0>         0.2093
     31 H12        -3.4742   -4.4369   -2.5113 H         1 <0>         0.1355
     32 H13        -4.2867   -6.6644   -3.1658 H         1 <0>         0.1365
     33 H14        -8.2865   -5.4948   -2.2519 H         1 <0>         0.1380
     34 H15        -7.4930   -3.2654   -1.5808 H         1 <0>         0.1291
     35 H16        -6.1996   -8.1103   -3.8664 H         1 <0>         0.1203
     36 H17        -8.9785   -6.9335   -3.0121 H         1 <0>         0.1005
     37 H18        -8.7083   -8.4543   -4.0199 H         1 <0>         0.1043
     38 H19        -7.4007   -9.4888   -2.1083 H         1 <0>         0.1039
     39 H20        -7.6709   -7.9680   -1.1005 H         1 <0>         0.0980
     40 H21        -1.8730   -0.1212    0.7986 H         1 <0>         0.4239
@<TRIPOS>BOND
     1    1    2 1
     2    1   20 1
     3    1   21 1
     4    1   22 1
     5    2    3 1
     6    2    4 1
     7    2   23 1
     8    3   24 1
     9    3   25 1
    10    3   26 1
    11    4    5 1
    12    4   27 1
    13    4   40 1
    14    5    6 1
    15    5   28 1
    16    5   29 1
    17    6   10 1
    18    6    7 2
    19    7    8 1
    20    7   30 1
    21    8    9 1
    22    9   10 2
    23    9   11 1
    24   11   16 ar
    25   11   12 ar
    26   12   13 ar
    27   12   31 1
    28   13   14 ar
    29   13   32 1
    30   14   15 ar
    31   14   17 1
    32   15   16 ar
    33   15   33 1
    34   16   34 1
    35   17   19 1
    36   17   18 1
    37   17   35 1
    38   18   19 1
    39   18   36 1
    40   18   37 1
    41   19   38 1
    42   19   39 1
@<TRIPOS>MOLECULE
ZINC94523912
   34    36     0     0     0
SMALL
USER_CHARGES

@<TRIPOS>ATOM
      1 C1         -0.0187    1.5258    0.0104 C.3       1 <0>        -0.1771
      2 C2          0.0021   -0.0041    0.0020 C.3       1 <0>         0.1172
      3 H1          0.5293   -0.3651    0.8851 H         1 <0>         0.1530
      4 C3          0.7074   -0.4901   -1.2379 C.2       1 <0>        -0.0070
      5 C4          1.7603   -1.3438   -1.1319 C.2       1 <0>        -0.1792
      6 S1          2.1787   -1.5671   -2.8564 S.3       1 <0>         0.0941
      7 C5          0.9092   -0.5021   -3.5280 C.2       1 <0>         0.1880
      8 N1          0.3031   -0.0943   -2.4218 N.2       1 <0>        -0.5159
      9 C6          0.6120   -0.1700   -4.9379 C.ar      1 <0>        -0.0378
     10 C7         -0.4346    0.7000   -5.2474 C.ar      1 <0>        -0.0700
     11 C8         -0.7067    1.0057   -6.5647 C.ar      1 <0>        -0.1138
     12 C9          0.0553    0.4518   -7.5783 C.ar      1 <0>        -0.0875
     13 C10         1.0937   -0.4115   -7.2783 C.ar      1 <0>        -0.0408
     14 C11         1.3803   -0.7206   -5.9644 C.ar      1 <0>        -0.0794
     15 C12         1.9178   -1.0108   -8.3886 C.3       1 <0>        -0.1318
     16 C13         1.6926   -0.4750   -9.8039 C.3       1 <0>        -0.1718
     17 C14         1.1895   -1.8693   -9.4246 C.3       1 <0>        -0.1645
     18 N2         -1.3761   -0.5125    0.0124 N.4       1 <0>        -0.6340
     19 H2          1.0039    1.9031    0.0027 H         1 <0>         0.1036
     20 H3         -0.5459    1.8868   -0.8726 H         1 <0>         0.0898
     21 H4         -0.5289    1.8773    0.9072 H         1 <0>         0.0862
     22 H5          2.2175   -1.7689   -0.2507 H         1 <0>         0.2101
     23 H6         -1.0303    1.1326   -4.4573 H         1 <0>         0.1335
     24 H7         -1.5165    1.6784   -6.8056 H         1 <0>         0.1372
     25 H8         -0.1618    0.6943   -8.6081 H         1 <0>         0.1357
     26 H9          2.1943   -1.3909   -5.7312 H         1 <0>         0.1288
     27 H10         2.9320   -1.3030   -8.1162 H         1 <0>         0.1178
     28 H11         0.9483    0.3109   -9.9320 H         1 <0>         0.1007
     29 H12         2.5586   -0.4145  -10.4629 H         1 <0>         0.1040
     30 H13         1.7247   -2.7261   -9.8342 H         1 <0>         0.1032
     31 H14         0.1143   -2.0006   -9.3032 H         1 <0>         0.0980
     32 H15        -1.8641   -0.1783   -0.8050 H         1 <0>         0.4380
     33 H16        -1.3624   -1.5214    0.0069 H         1 <0>         0.4346
     34 H17        -1.8484   -0.1871    0.8426 H         1 <0>         0.4372
@<TRIPOS>BOND
     1    1    2 1
     2    1   19 1
     3    1   20 1
     4    1   21 1
     5    2    3 1
     6    2    4 1
     7    2   18 1
     8    4    8 1
     9    4    5 2
    10    5    6 1
    11    5   22 1
    12    6    7 1
    13    7    8 2
    14    7    9 1
    15    9   14 ar
    16    9   10 ar
    17   10   11 ar
    18   10   23 1
    19   11   12 ar
    20   11   24 1
    21   12   13 ar
    22   12   25 1
    23   13   14 ar
    24   13   15 1
    25   14   26 1
    26   15   17 1
    27   15   16 1
    28   15   27 1
    29   16   17 1
    30   16   28 1
    31   16   29 1
    32   17   30 1
    33   17   31 1
    34   18   32 1
    35   18   33 1
    36   18   34 1
@<TRIPOS>MOLECULE
ZINC94523911
   34    36     0     0     0
SMALL
USER_CHARGES

@<TRIPOS>ATOM
      1 C1         -0.0187    1.5258    0.0104 C.3       1 <0>        -0.1746
      2 C2          0.0021   -0.0041    0.0020 C.3       1 <0>         0.1094
      3 H1          0.5293   -0.3651    0.8851 H         1 <0>         0.1575
      4 C3         -1.4117   -0.5257    0.0127 C.2       1 <0>         0.0418
      5 C4         -1.8247   -1.3934   -0.9491 C.2       1 <0>        -0.2646
      6 S1         -3.5212   -1.6577   -0.4485 S.3       1 <0>         0.1007
      7 C5         -3.4951   -0.5866    0.9830 C.2       1 <0>         0.2021
      8 N1         -2.2447   -0.1474    0.9534 N.2       1 <0>        -0.5027
      9 C6         -4.5757   -0.2782    1.9441 C.ar      1 <0>        -0.0422
     10 C7         -4.3425    0.6016    3.0022 C.ar      1 <0>        -0.0650
     11 C8         -5.3547    0.8851    3.8954 C.ar      1 <0>        -0.1139
     12 C9         -6.5992    0.2993    3.7441 C.ar      1 <0>        -0.0851
     13 C10        -6.8367   -0.5739    2.6978 C.ar      1 <0>        -0.0431
     14 C11        -5.8345   -0.8611    1.7939 C.ar      1 <0>        -0.0777
     15 C12        -8.1948   -1.2081    2.5413 C.3       1 <0>        -0.1311
     16 C13        -9.3210   -0.6973    3.4421 C.3       1 <0>        -0.1719
     17 C14        -8.7063   -2.0757    3.6931 C.3       1 <0>        -0.1648
     18 N2          0.6897   -0.4778   -1.2066 N.4       1 <0>        -0.6348
     19 H2          1.0039    1.9031    0.0027 H         1 <0>         0.0880
     20 H3         -0.5459    1.8868   -0.8726 H         1 <0>         0.0805
     21 H4         -0.5289    1.8773    0.9072 H         1 <0>         0.1150
     22 H5         -1.2795   -1.8079   -1.7842 H         1 <0>         0.1977
     23 H6         -3.3715    1.0592    3.1215 H         1 <0>         0.1367
     24 H7         -5.1755    1.5654    4.7148 H         1 <0>         0.1385
     25 H8         -7.3884    0.5245    4.4461 H         1 <0>         0.1362
     26 H9         -6.0225   -1.5392    0.9746 H         1 <0>         0.1285
     27 H10        -8.4584   -1.5105    1.5278 H         1 <0>         0.1174
     28 H11        -9.0797    0.0975    4.1480 H         1 <0>         0.1008
     29 H12       -10.3260   -0.6634    3.0213 H         1 <0>         0.1038
     30 H13        -9.3068   -2.9487    3.4373 H         1 <0>         0.1030
     31 H14        -8.0605   -2.1878    4.5640 H         1 <0>         0.0984
     32 H15         1.6363   -0.1286   -1.2138 H         1 <0>         0.4438
     33 H16         0.7033   -1.4867   -1.2121 H         1 <0>         0.4367
     34 H17         0.2017   -0.1436   -2.0240 H         1 <0>         0.4350
@<TRIPOS>BOND
     1    1    2 1
     2    1   19 1
     3    1   20 1
     4    1   21 1
     5    2    3 1
     6    2    4 1
     7    2   18 1
     8    4    8 1
     9    4    5 2
    10    5    6 1
    11    5   22 1
    12    6    7 1
    13    7    8 2
    14    7    9 1
    15    9   14 ar
    16    9   10 ar
    17   10   11 ar
    18   10   23 1
    19   11   12 ar
    20   11   24 1
    21   12   13 ar
    22   12   25 1
    23   13   14 ar
    24   13   15 1
    25   14   26 1
    26   15   17 1
    27   15   16 1
    28   15   27 1
    29   16   17 1
    30   16   28 1
    31   16   29 1
    32   17   30 1
    33   17   31 1
    34   18   32 1
    35   18   33 1
    36   18   34 1
@<TRIPOS>MOLECULE
ZINC35154822
   39    40     0     0     0
SMALL
USER_CHARGES

@<TRIPOS>ATOM
      1 C1         -0.0187    1.5258    0.0104 C.3       1 <0>        -0.1866
      2 C2          0.0021   -0.0041    0.0020 C.3       1 <0>         0.0263
      3 H1          0.5123   -0.3556   -0.8948 H         1 <0>         0.1413
      4 C3          0.7421   -0.5109    1.2415 C.3       1 <0>        -0.1128
      5 C4          0.7628   -2.0407    1.2331 C.3       1 <0>        -0.1722
      6 C5          2.1775    0.0187    1.2307 C.3       1 <0>        -0.1535
      7 N1         -1.3761   -0.5125    0.0124 N.4       1 <0>        -0.5073
      8 C6         -2.0500   -0.1262   -1.2343 C.3       1 <0>         0.0742
      9 C7         -3.4638   -0.6478   -1.2236 C.2       1 <0>        -0.0070
     10 C8         -4.4819    0.1533   -0.8121 C.2       1 <0>        -0.1819
     11 S1         -5.8726   -0.9542   -1.0063 S.3       1 <0>         0.0966
     12 C9         -4.9486   -2.3597   -1.6129 C.2       1 <0>         0.1835
     13 N2         -3.7148   -1.8746   -1.6169 N.2       1 <0>        -0.5075
     14 C10        -5.4313   -3.6999   -2.0087 C.ar      1 <0>        -0.0544
     15 C11        -4.5281   -4.6659   -2.4549 C.ar      1 <0>        -0.0333
     16 C12        -4.9836   -5.9145   -2.8229 C.ar      1 <0>        -0.1554
     17 C13        -6.3355   -6.2106   -2.7508 C.ar      1 <0>         0.1389
     18 C14        -7.2366   -5.2551   -2.3085 C.ar      1 <0>        -0.1499
     19 C15        -6.7909   -4.0054   -1.9321 C.ar      1 <0>        -0.0534
     20 F1         -6.7767   -7.4350   -3.1134 F         1 <0>        -0.1241
     21 H2          1.0039    1.9031    0.0027 H         1 <0>         0.1103
     22 H3         -0.5459    1.8868   -0.8726 H         1 <0>         0.0823
     23 H4         -0.5289    1.8773    0.9072 H         1 <0>         0.0828
     24 H5          0.2319   -0.1594    2.1383 H         1 <0>         0.0946
     25 H6          1.2730   -2.3923    0.3363 H         1 <0>         0.0740
     26 H7          1.2900   -2.4018    2.1162 H         1 <0>         0.0858
     27 H8         -0.2598   -2.4180    1.2409 H         1 <0>         0.0503
     28 H9          2.1627    1.1086    1.2367 H         1 <0>         0.0708
     29 H10         2.7046   -0.3424    2.1137 H         1 <0>         0.0776
     30 H11         2.6876   -0.3328    0.3339 H         1 <0>         0.0683
     31 H12        -1.3629   -1.5185    0.0898 H         1 <0>         0.4290
     32 H13        -2.0643    0.9605   -1.3179 H         1 <0>         0.1469
     33 H14        -1.5132   -0.5489   -2.0836 H         1 <0>         0.1450
     34 H15        -4.4576    1.1754   -0.4639 H         1 <0>         0.2106
     35 H16        -3.4744   -4.4359   -2.5121 H         1 <0>         0.1453
     36 H17        -4.2856   -6.6628   -3.1683 H         1 <0>         0.1501
     37 H18        -8.2891   -5.4910   -2.2542 H         1 <0>         0.1519
     38 H19        -7.4933   -3.2630   -1.5830 H         1 <0>         0.1394
     39 H20        -1.8730   -0.1212    0.7986 H         1 <0>         0.4235
@<TRIPOS>BOND
     1    1    2 1
     2    1   21 1
     3    1   22 1
     4    1   23 1
     5    2    3 1
     6    2    4 1
     7    2    7 1
     8    4    5 1
     9    4    6 1
    10    4   24 1
    11    5   25 1
    12    5   26 1
    13    5   27 1
    14    6   28 1
    15    6   29 1
    16    6   30 1
    17    7    8 1
    18    7   31 1
    19    7   39 1
    20    8    9 1
    21    8   32 1
    22    8   33 1
    23    9   13 1
    24    9   10 2
    25   10   11 1
    26   10   34 1
    27   11   12 1
    28   12   13 2
    29   12   14 1
    30   14   19 ar
    31   14   15 ar
    32   15   16 ar
    33   15   35 1
    34   16   17 ar
    35   16   36 1
    36   17   18 ar
    37   17   20 1
    38   18   19 ar
    39   18   37 1
    40   19   38 1
@<TRIPOS>MOLECULE
ZINC36827738
   34    35     0     0     0
SMALL
USER_CHARGES

@<TRIPOS>ATOM
      1 C1         -0.0187    1.5258    0.0104 C.3       1 <0>        -0.1809
      2 C2          0.0021   -0.0041    0.0020 C.3       1 <0>         0.0306
      3 H1          0.5293   -0.3651    0.8851 H         1 <0>         0.1510
      4 C3         -1.4333   -0.5336    0.0129 C.3       1 <0>         0.0503
      5 O1         -2.1582    0.0324   -1.0808 O.3       1 <0>        -0.5784
      6 N1          0.6897   -0.4778   -1.2066 N.4       1 <0>        -0.5037
      7 C4          2.1002   -0.0703   -1.1590 C.3       1 <0>         0.0740
      8 C5          2.8056   -0.5563   -2.3989 C.2       1 <0>        -0.0075
      9 C6          2.9454    0.2687   -3.4701 C.2       1 <0>        -0.1800
     10 S1          3.8259   -0.8029   -4.5993 S.3       1 <0>         0.0969
     11 C7          3.9114   -2.2290   -3.5241 C.2       1 <0>         0.1826
     12 N2          3.2907   -1.7751   -2.4442 N.2       1 <0>        -0.5075
     13 C8          4.5162   -3.5553   -3.7709 C.ar      1 <0>        -0.0539
     14 C9          4.4663   -4.5421   -2.7852 C.ar      1 <0>        -0.0335
     15 C10         5.0321   -5.7776   -3.0205 C.ar      1 <0>        -0.1555
     16 C11         5.6499   -6.0399   -4.2330 C.ar      1 <0>         0.1386
     17 C12         5.7022   -5.0636   -5.2152 C.ar      1 <0>        -0.1498
     18 C13         5.1341   -3.8268   -4.9925 C.ar      1 <0>        -0.0535
     19 F1          6.2034   -7.2516   -4.4582 F         1 <0>        -0.1242
     20 H2          1.0039    1.9031    0.0027 H         1 <0>         0.0808
     21 H3         -0.5459    1.8868   -0.8726 H         1 <0>         0.0911
     22 H4         -0.5289    1.8773    0.9072 H         1 <0>         0.1056
     23 H5         -1.4207   -1.6194   -0.0826 H         1 <0>         0.0722
     24 H6         -1.9156   -0.2570    0.9504 H         1 <0>         0.0964
     25 H7         -3.0783   -0.2599   -1.1362 H         1 <0>         0.4092
     26 H8          0.6317   -1.4840   -1.2540 H         1 <0>         0.4292
     27 H9          2.1628    1.0167   -1.1079 H         1 <0>         0.1467
     28 H10         2.5740   -0.5034   -0.2781 H         1 <0>         0.1452
     29 H11         2.6158    1.2886   -3.6028 H         1 <0>         0.2108
     30 H12         3.9857   -4.3384   -1.8397 H         1 <0>         0.1452
     31 H13         4.9941   -6.5419   -2.2584 H         1 <0>         0.1500
     32 H14         6.1848   -5.2732   -6.1584 H         1 <0>         0.1519
     33 H15         5.1712   -3.0683   -5.7604 H         1 <0>         0.1395
     34 H16         0.2511   -0.0769   -2.0221 H         1 <0>         0.4309
@<TRIPOS>BOND
     1    1    2 1
     2    1   20 1
     3    1   21 1
     4    1   22 1
     5    2    3 1
     6    2    4 1
     7    2    6 1
     8    4    5 1
     9    4   23 1
    10    4   24 1
    11    5   25 1
    12    6    7 1
    13    6   26 1
    14    6   34 1
    15    7    8 1
    16    7   27 1
    17    7   28 1
    18    8   12 1
    19    8    9 2
    20    9   10 1
    21    9   29 1
    22   10   11 1
    23   11   12 2
    24   11   13 1
    25   13   18 ar
    26   13   14 ar
    27   14   15 ar
    28   14   30 1
    29   15   16 ar
    30   15   31 1
    31   16   17 ar
    32   16   19 1
    33   17   18 ar
    34   17   32 1
    35   18   33 1
@<TRIPOS>MOLECULE
ZINC88195132
   37    38     0     0     0
SMALL
USER_CHARGES

@<TRIPOS>ATOM
      1 C1         -0.0187    1.5258    0.0104 C.3       1 <0>        -0.1662
      2 C2          0.0021   -0.0041    0.0020 C.3       1 <0>        -0.1190
      3 H1          0.5123   -0.3556   -0.8948 H         1 <0>         0.1020
      4 C3         -1.4333   -0.5336    0.0129 C.3       1 <0>        -0.0045
      5 N1         -2.1072   -0.1473   -1.2339 N.4       1 <0>        -0.5074
      6 C4         -3.4854   -0.6557   -1.2235 C.3       1 <0>         0.0781
      7 C5         -4.1768   -0.2594   -2.5025 C.2       1 <0>        -0.0093
      8 C6         -4.2160   -1.1234   -3.5511 C.2       1 <0>        -0.1810
      9 S1         -5.1284   -0.1528   -4.7445 S.3       1 <0>         0.0980
     10 C7         -5.3574    1.2939   -3.7191 C.2       1 <0>         0.1842
     11 N2         -4.7467    0.9187   -2.6039 N.2       1 <0>        -0.5079
     12 C8         -6.0468    2.5645   -4.0295 C.ar      1 <0>        -0.0550
     13 C9         -6.1057    3.5807   -3.0747 C.ar      1 <0>        -0.0331
     14 C10        -6.7501    4.7639   -3.3693 C.ar      1 <0>        -0.1555
     15 C11        -7.3390    4.9445   -4.6107 C.ar      1 <0>         0.1393
     16 C12        -7.2835    3.9387   -5.5625 C.ar      1 <0>        -0.1499
     17 C13        -6.6362    2.7540   -5.2803 C.ar      1 <0>        -0.0532
     18 F1         -7.9698    6.1052   -4.8940 F         1 <0>        -0.1240
     19 C14         0.7421   -0.5109    1.2415 C.3       1 <0>         0.0833
     20 O1          2.1131   -0.1139    1.1734 O.3       1 <0>        -0.5684
     21 H2          1.0039    1.9031    0.0027 H         1 <0>         0.0906
     22 H3         -0.5459    1.8868   -0.8726 H         1 <0>         0.0512
     23 H4         -0.5289    1.8773    0.9072 H         1 <0>         0.0720
     24 H5         -1.4190   -1.6203    0.0965 H         1 <0>         0.1372
     25 H6         -1.9701   -0.1109    0.8621 H         1 <0>         0.1371
     26 H7         -2.1205    0.8587   -1.3113 H         1 <0>         0.4308
     27 H8         -3.4711   -1.7424   -1.1399 H         1 <0>         0.1473
     28 H9         -4.0222   -0.2330   -0.3742 H         1 <0>         0.1462
     29 H10        -3.8087   -2.1197   -3.6393 H         1 <0>         0.2111
     30 H11        -5.6477    3.4406   -2.1067 H         1 <0>         0.1453
     31 H12        -6.7962    5.5509   -2.6311 H         1 <0>         0.1502
     32 H13        -7.7440    4.0845   -6.5284 H         1 <0>         0.1520
     33 H14        -6.5892    1.9726   -6.0244 H         1 <0>         0.1394
     34 H15         0.2852   -0.0874    2.1360 H         1 <0>         0.0584
     35 H16         0.6803   -1.5984    1.2822 H         1 <0>         0.0567
     36 H17         2.6440   -0.4017    1.9286 H         1 <0>         0.3968
     37 H18        -1.6103   -0.5386   -2.0201 H         1 <0>         0.4271
@<TRIPOS>BOND
     1    1    2 1
     2    1   21 1
     3    1   22 1
     4    1   23 1
     5    2    3 1
     6    2    4 1
     7    2   19 1
     8    4    5 1
     9    4   24 1
    10    4   25 1
    11    5    6 1
    12    5   26 1
    13    5   37 1
    14    6    7 1
    15    6   27 1
    16    6   28 1
    17    7   11 1
    18    7    8 2
    19    8    9 1
    20    8   29 1
    21    9   10 1
    22   10   11 2
    23   10   12 1
    24   12   17 ar
    25   12   13 ar
    26   13   14 ar
    27   13   30 1
    28   14   15 ar
    29   14   31 1
    30   15   16 ar
    31   15   18 1
    32   16   17 ar
    33   16   32 1
    34   17   33 1
    35   19   20 1
    36   19   34 1
    37   19   35 1
    38   20   36 1
@<TRIPOS>MOLECULE
ZINC88195131
   37    38     0     0     0
SMALL
USER_CHARGES

@<TRIPOS>ATOM
      1 C1         -0.0187    1.5258    0.0104 C.3       1 <0>        -0.1659
      2 C2          0.0021   -0.0041    0.0020 C.3       1 <0>        -0.1195
      3 H1          0.5123   -0.3556   -0.8948 H         1 <0>         0.1022
      4 C3          0.7421   -0.5109    1.2415 C.3       1 <0>        -0.0044
      5 N1          2.1515   -0.1027    1.1714 N.4       1 <0>        -0.5072
      6 C4          2.8620   -0.5894    2.3615 C.3       1 <0>         0.0781
      7 C5          4.3078   -0.1706    2.2896 C.2       1 <0>        -0.0091
      8 C6          4.7196    0.9647    2.9135 C.2       1 <0>        -0.1815
      9 S1          6.4600    0.9548    2.5019 S.3       1 <0>         0.0980
     10 C7          6.4492   -0.5565    1.5463 C.2       1 <0>         0.1844
     11 N2          5.1727   -0.9045    1.6291 N.2       1 <0>        -0.5077
     12 C8          7.5645   -1.2375    0.8549 C.ar      1 <0>        -0.0551
     13 C9          7.3342   -2.4204    0.1510 C.ar      1 <0>        -0.0330
     14 C10         8.3781   -3.0517   -0.4922 C.ar      1 <0>        -0.1555
     15 C11         9.6542   -2.5136   -0.4401 C.ar      1 <0>         0.1393
     16 C12         9.8884   -1.3392    0.2574 C.ar      1 <0>        -0.1500
     17 C13         8.8504   -0.6966    0.8989 C.ar      1 <0>        -0.0532
     18 F1         10.6736   -3.1364   -1.0712 F         1 <0>        -0.1240
     19 C14        -1.4333   -0.5336    0.0129 C.3       1 <0>         0.0833
     20 O1         -2.0889   -0.1578   -1.2000 O.3       1 <0>        -0.5684
     21 H2          1.0039    1.9031    0.0027 H         1 <0>         0.0509
     22 H3         -0.5459    1.8868   -0.8726 H         1 <0>         0.0907
     23 H4         -0.5289    1.8773    0.9072 H         1 <0>         0.0718
     24 H5          0.2852   -0.0874    2.1360 H         1 <0>         0.1371
     25 H6          0.6803   -1.5984    1.2822 H         1 <0>         0.1373
     26 H7          2.5744   -0.4948    0.3435 H         1 <0>         0.4320
     27 H8          2.4051   -0.1658    3.2560 H         1 <0>         0.1469
     28 H9          2.8002   -1.6769    2.4022 H         1 <0>         0.1467
     29 H10         4.1528    1.6758    3.4960 H         1 <0>         0.2109
     30 H11         6.3402   -2.8409    0.1104 H         1 <0>         0.1454
     31 H12         8.2010   -3.9671   -1.0371 H         1 <0>         0.1502
     32 H13        10.8848   -0.9240    0.2949 H         1 <0>         0.1520
     33 H14         9.0330    0.2212    1.4382 H         1 <0>         0.1394
     34 H15        -1.4190   -1.6203    0.0965 H         1 <0>         0.0569
     35 H16        -1.9701   -0.1109    0.8621 H         1 <0>         0.0583
     36 H17        -3.0051   -0.4608   -1.2620 H         1 <0>         0.3968
     37 H18         2.2086    0.9039    1.1338 H         1 <0>         0.4257
@<TRIPOS>BOND
     1    1    2 1
     2    1   21 1
     3    1   22 1
     4    1   23 1
     5    2    3 1
     6    2    4 1
     7    2   19 1
     8    4    5 1
     9    4   24 1
    10    4   25 1
    11    5    6 1
    12    5   26 1
    13    5   37 1
    14    6    7 1
    15    6   27 1
    16    6   28 1
    17    7   11 1
    18    7    8 2
    19    8    9 1
    20    8   29 1
    21    9   10 1
    22   10   11 2
    23   10   12 1
    24   12   17 ar
    25   12   13 ar
    26   13   14 ar
    27   13   30 1
    28   14   15 ar
    29   14   31 1
    30   15   16 ar
    31   15   18 1
    32   16   17 ar
    33   16   32 1
    34   17   33 1
    35   19   20 1
    36   19   34 1
    37   19   35 1
    38   20   36 1
@<TRIPOS>MOLECULE
ZINC63099423
   33    34     0     0     0
SMALL
USER_CHARGES

@<TRIPOS>ATOM
      1 C1         -0.0169    1.3914    0.0097 C.ar      1 <0>        -0.0529
      2 C2          1.1695    2.0947    0.0021 C.ar      1 <0>        -0.1500
      3 C3          2.3789    1.4182   -0.0135 C.ar      1 <0>         0.1402
      4 C4          2.4033    0.0326   -0.0212 C.ar      1 <0>        -0.1556
      5 C5          1.2228   -0.6804   -0.0137 C.ar      1 <0>        -0.0326
      6 C6          0.0021   -0.0041    0.0020 C.ar      1 <0>        -0.0563
      7 C7         -1.2666   -0.7632    0.0105 C.2       1 <0>         0.1855
      8 N1         -1.4625   -2.0744    0.0109 N.2       1 <0>        -0.5087
      9 C8         -2.6728   -2.5824    0.0199 C.2       1 <0>        -0.0104
     10 C9         -3.7535   -1.7580    0.0291 C.2       1 <0>        -0.1808
     11 S1         -2.9497   -0.1603    0.0311 S.3       1 <0>         0.1010
     12 C10        -2.8638   -4.0772    0.0196 C.3       1 <0>         0.0782
     13 N2         -2.8166   -4.5766   -1.3611 N.4       1 <0>        -0.5045
     14 C11        -3.0028   -6.0337   -1.3614 C.3       1 <0>        -0.0112
     15 C12        -2.9536   -6.5538   -2.7995 C.3       1 <0>        -0.2033
     16 C13        -3.1476   -8.0715   -2.7998 C.3       1 <0>         0.4666
     17 F1         -4.3883   -8.3832   -2.2334 F         1 <0>        -0.1745
     18 F2         -3.1026   -8.5471   -4.1147 F         1 <0>        -0.1653
     19 F3         -2.1293   -8.6720   -2.0517 F         1 <0>        -0.1740
     20 F4          3.5381    2.1119   -0.0217 F         1 <0>        -0.1236
     21 H1         -0.9588    1.9196    0.0260 H         1 <0>         0.1395
     22 H2          1.1559    3.1746    0.0081 H         1 <0>         0.1522
     23 H3          3.3485   -0.4898   -0.0334 H         1 <0>         0.1505
     24 H4          1.2429   -1.7602   -0.0204 H         1 <0>         0.1455
     25 H5         -4.8058   -2.0005    0.0368 H         1 <0>         0.2115
     26 H6         -2.0705   -4.5450    0.6025 H         1 <0>         0.1490
     27 H7         -3.8305   -4.3200    0.4609 H         1 <0>         0.1497
     28 H8         -3.5510   -4.1435   -1.9007 H         1 <0>         0.4297
     29 H9         -2.2095   -6.5016   -0.7785 H         1 <0>         0.1491
     30 H10        -3.9695   -6.2766   -0.9201 H         1 <0>         0.1491
     31 H11        -3.7470   -6.0860   -3.3824 H         1 <0>         0.1360
     32 H12        -1.9870   -6.3110   -3.2408 H         1 <0>         0.1361
     33 H13        -1.9218   -4.3518   -1.7696 H         1 <0>         0.4345
@<TRIPOS>BOND
     1    1    6 ar
     2    1    2 ar
     3    1   21 1
     4    2    3 ar
     5    2   22 1
     6    3    4 ar
     7    3   20 1
     8    4    5 ar
     9    4   23 1
    10    5    6 ar
    11    5   24 1
    12    6    7 1
    13    7   11 1
    14    7    8 2
    15    8    9 1
    16    9   10 2
    17    9   12 1
    18   10   11 1
    19   10   25 1
    20   12   13 1
    21   12   26 1
    22   12   27 1
    23   13   14 1
    24   13   28 1
    25   13   33 1
    26   14   15 1
    27   14   29 1
    28   14   30 1
    29   15   16 1
    30   15   31 1
    31   15   32 1
    32   16   17 1
    33   16   18 1
    34   16   19 1
@<TRIPOS>MOLECULE
ZINC63099423
   32    33     0     0     0
SMALL
USER_CHARGES

@<TRIPOS>ATOM
      1 C1         -0.0169    1.3914    0.0097 C.ar      1 <0>        -0.0620
      2 C2          1.1695    2.0947    0.0021 C.ar      1 <0>        -0.1516
      3 C3          2.3789    1.4182   -0.0135 C.ar      1 <0>         0.1208
      4 C4          2.4033    0.0326   -0.0212 C.ar      1 <0>        -0.1537
      5 C5          1.2228   -0.6804   -0.0137 C.ar      1 <0>        -0.0386
      6 C6          0.0021   -0.0041    0.0020 C.ar      1 <0>        -0.0297
      7 C7         -1.2666   -0.7632    0.0105 C.2       1 <0>         0.1572
      8 N1         -1.4625   -2.0744    0.0109 N.2       1 <0>        -0.4775
      9 C8         -2.6728   -2.5824    0.0199 C.2       1 <0>         0.0642
     10 C9         -3.7535   -1.7580    0.0291 C.2       1 <0>        -0.1972
     11 S1         -2.9497   -0.1603    0.0311 S.3       1 <0>         0.0194
     12 C10        -2.8638   -4.0772    0.0196 C.3       1 <0>         0.1296
     13 N2         -2.8166   -4.5766   -1.3611 N.3       1 <0>        -0.6782
     14 C11        -2.9997   -6.0336   -1.4005 C.3       1 <0>         0.0566
     15 C12        -2.9445   -6.5155   -2.8516 C.3       1 <0>        -0.1660
     16 C13        -3.1352   -8.0330   -2.8926 C.3       1 <0>         0.4550
     17 F1         -4.3771   -8.3621   -2.3388 F         1 <0>        -0.1846
     18 F2         -3.0848   -8.4736   -4.2195 F         1 <0>        -0.1824
     19 F3         -2.1182   -8.6509   -2.1571 F         1 <0>        -0.1818
     20 F4          3.5381    2.1119   -0.0217 F         1 <0>        -0.1323
     21 H1         -0.9588    1.9196    0.0260 H         1 <0>         0.1376
     22 H2          1.1559    3.1746    0.0081 H         1 <0>         0.1457
     23 H3          3.3485   -0.4898   -0.0334 H         1 <0>         0.1458
     24 H4          1.2429   -1.7602   -0.0204 H         1 <0>         0.1478
     25 H5         -4.8058   -2.0005    0.0368 H         1 <0>         0.1992
     26 H6         -2.0705   -4.5450    0.6025 H         1 <0>         0.0936
     27 H7         -3.8305   -4.3200    0.4609 H         1 <0>         0.0527
     28 H8         -2.2073   -6.5150   -0.8274 H         1 <0>         0.0898
     29 H9         -3.9673   -6.2900   -0.9690 H         1 <0>         0.0472
     30 H10        -3.7370   -6.0341   -3.4247 H         1 <0>         0.1090
     31 H11        -1.9770   -6.2591   -3.2831 H         1 <0>         0.1203
     32 H12        -3.5008   -4.1104   -1.9378 H         1 <0>         0.3440
@<TRIPOS>BOND
     1    1    6 ar
     2    1    2 ar
     3    1   21 1
     4    2    3 ar
     5    2   22 1
     6    3    4 ar
     7    3   20 1
     8    4    5 ar
     9    4   23 1
    10    5    6 ar
    11    5   24 1
    12    6    7 1
    13    7   11 1
    14    7    8 2
    15    8    9 1
    16    9   10 2
    17    9   12 1
    18   10   11 1
    19   10   25 1
    20   12   13 1
    21   12   26 1
    22   12   27 1
    23   13   14 1
    24   13   32 1
    25   14   15 1
    26   14   28 1
    27   14   29 1
    28   15   16 1
    29   15   30 1
    30   15   31 1
    31   16   17 1
    32   16   18 1
    33   16   19 1
@<TRIPOS>MOLECULE
ZINC54111199
   44    45     0     0     0
SMALL
USER_CHARGES

@<TRIPOS>ATOM
      1 C1         -0.0187    1.5258    0.0104 C.3       1 <0>        -0.1844
      2 C2          0.0021   -0.0041    0.0020 C.3       1 <0>         0.0244
      3 C3          0.7421   -0.5109    1.2415 C.3       1 <0>        -0.1858
      4 N1         -1.3761   -0.5125    0.0124 N.4       1 <0>        -0.3821
      5 C4         -2.0866   -0.0259   -1.1777 C.3       1 <0>        -0.0572
      6 C5         -1.3562   -1.9814    0.0044 C.3       1 <0>        -0.0153
      7 C6         -2.7849   -2.5116    0.1409 C.3       1 <0>         0.0331
      8 N2         -2.7649   -3.9804    0.1328 N.3       1 <0>        -0.6773
      9 C7         -4.1227   -4.5260    0.2624 C.3       1 <0>         0.1357
     10 C8         -4.0622   -6.0318    0.2502 C.2       1 <0>         0.0466
     11 C9         -4.0288   -6.7212    1.4212 C.2       1 <0>        -0.1778
     12 S1         -3.9650   -8.4018    0.8130 S.3       1 <0>         0.0402
     13 C10        -3.9897   -8.0037   -0.9299 C.2       1 <0>         0.1621
     14 N3         -4.0473   -6.6798   -0.8911 N.2       1 <0>        -0.5011
     15 C11        -3.9597   -8.9077   -2.0995 C.ar      1 <0>        -0.0371
     16 C12        -3.9809   -8.3816   -3.3920 C.ar      1 <0>        -0.0400
     17 C13        -3.9528   -9.2293   -4.4794 C.ar      1 <0>        -0.1550
     18 C14        -3.9039  -10.6014   -4.2905 C.ar      1 <0>         0.1270
     19 C15        -3.8826  -11.1290   -3.0092 C.ar      1 <0>        -0.1494
     20 C16        -3.9042  -10.2900   -1.9148 C.ar      1 <0>        -0.0591
     21 F1         -3.8774  -11.4275   -5.3592 F         1 <0>        -0.1287
     22 H1          1.0039    1.9031    0.0027 H         1 <0>         0.1062
     23 H2         -0.5459    1.8868   -0.8726 H         1 <0>         0.0823
     24 H3         -0.5289    1.8773    0.9072 H         1 <0>         0.0814
     25 H4          0.5123   -0.3556   -0.8948 H         1 <0>         0.1360
     26 H5          0.2319   -0.1594    2.1383 H         1 <0>         0.0817
     27 H6          0.7568   -1.6008    1.2356 H         1 <0>         0.0832
     28 H7          1.7647   -0.1336    1.2338 H         1 <0>         0.1060
     29 H8         -1.5764   -0.3774   -2.0745 H         1 <0>         0.1226
     30 H9         -3.1092   -0.4032   -1.1699 H         1 <0>         0.1241
     31 H10        -2.1013    1.0640   -1.1717 H         1 <0>         0.1276
     32 H11        -0.9259   -2.3338   -0.9331 H         1 <0>         0.1283
     33 H12        -0.7538   -2.3412    0.8386 H         1 <0>         0.1431
     34 H13        -3.2151   -2.1592    1.0783 H         1 <0>         0.0954
     35 H14        -3.3872   -2.1518   -0.6933 H         1 <0>         0.0551
     36 H15        -2.3119   -4.3313   -0.6977 H         1 <0>         0.3552
     37 H16        -4.5622   -4.1876    1.2007 H         1 <0>         0.0948
     38 H17        -4.7343   -4.1802   -0.5709 H         1 <0>         0.0564
     39 H18        -4.0379   -6.3554    2.4373 H         1 <0>         0.2010
     40 H19        -4.0197   -7.3125   -3.5403 H         1 <0>         0.1435
     41 H20        -3.9692   -8.8232   -5.4800 H         1 <0>         0.1464
     42 H21        -3.8445  -12.1990   -2.8674 H         1 <0>         0.1487
     43 H22        -3.8826  -10.7020   -0.9168 H         1 <0>         0.1388
     44 H23        -1.8484   -0.1871    0.8426 H         1 <0>         0.4234
@<TRIPOS>BOND
     1    1    2 1
     2    1   22 1
     3    1   23 1
     4    1   24 1
     5    2    3 1
     6    2    4 1
     7    2   25 1
     8    3   26 1
     9    3   27 1
    10    3   28 1
    11    4    5 1
    12    4    6 1
    13    4   44 1
    14    5   29 1
    15    5   30 1
    16    5   31 1
    17    6    7 1
    18    6   32 1
    19    6   33 1
    20    7    8 1
    21    7   34 1
    22    7   35 1
    23    8    9 1
    24    8   36 1
    25    9   10 1
    26    9   37 1
    27    9   38 1
    28   10   14 1
    29   10   11 2
    30   11   12 1
    31   11   39 1
    32   12   13 1
    33   13   14 2
    34   13   15 1
    35   15   20 ar
    36   15   16 ar
    37   16   17 ar
    38   16   40 1
    39   17   18 ar
    40   17   41 1
    41   18   19 ar
    42   18   21 1
    43   19   20 ar
    44   19   42 1
    45   20   43 1
@<TRIPOS>MOLECULE
ZINC35163443
   37    38     0     0     0
SMALL
USER_CHARGES

@<TRIPOS>ATOM
      1 C1         -0.0173    1.4248    0.0099 C.3       1 <0>         0.0298
      2 O1          0.0021   -0.0041    0.0020 O.3       1 <0>        -0.3899
      3 C2          0.6518   -0.5703   -1.1379 C.3       1 <0>         0.0626
      4 C3          0.6131   -2.0967   -1.0411 C.3       1 <0>        -0.1514
      5 C4          1.3087   -2.7029   -2.2615 C.3       1 <0>        -0.0050
      6 N1          1.2716   -4.1685   -2.1685 N.4       1 <0>        -0.5069
      7 C5          1.9395   -4.7506   -3.3403 C.3       1 <0>         0.0786
      8 C6          1.9013   -6.2541   -3.2450 C.2       1 <0>        -0.0093
      9 C7          0.9169   -6.9512   -3.8716 C.2       1 <0>        -0.1812
     10 S1          1.3635   -8.6250   -3.4270 S.3       1 <0>         0.0977
     11 C8          2.8088   -8.2145   -2.4576 C.2       1 <0>         0.1844
     12 N2          2.8218   -6.8929   -2.5612 N.2       1 <0>        -0.5080
     13 C9          3.7413   -9.1086   -1.7387 C.ar      1 <0>        -0.0552
     14 C10         4.8168   -8.5735   -1.0282 C.ar      1 <0>        -0.0329
     15 C11         5.6838   -9.4120   -0.3594 C.ar      1 <0>        -0.1555
     16 C12         5.4888  -10.7837   -0.3924 C.ar      1 <0>         0.1394
     17 C13         4.4225  -11.3202   -1.0964 C.ar      1 <0>        -0.1500
     18 C14         3.5460  -10.4903   -1.7635 C.ar      1 <0>        -0.0532
     19 F1          6.3415  -11.6007    0.2637 F         1 <0>        -0.1239
     20 H1          1.0053    1.8021    0.0021 H         1 <0>         0.0483
     21 H2         -0.5445    1.7859   -0.8732 H         1 <0>         0.0482
     22 H3         -0.5275    1.7763    0.9067 H         1 <0>         0.0960
     23 H4          0.1385   -0.2506   -2.0447 H         1 <0>         0.0602
     24 H5          1.6883   -0.2344   -1.1694 H         1 <0>         0.0604
     25 H6          1.1264   -2.4164   -0.1342 H         1 <0>         0.0965
     26 H7         -0.4234   -2.4326   -1.0095 H         1 <0>         0.0964
     27 H8          0.7954   -2.3833   -3.1684 H         1 <0>         0.1363
     28 H9          2.3452   -2.3671   -2.2930 H         1 <0>         0.1363
     29 H10         1.7467   -4.4645   -1.3291 H         1 <0>         0.4326
     30 H11         1.4262   -4.4309   -4.2472 H         1 <0>         0.1468
     31 H12         2.9760   -4.4147   -3.3719 H         1 <0>         0.1462
     32 H13         0.0932   -6.5934   -4.4714 H         1 <0>         0.2110
     33 H14         4.9701   -7.5048   -1.0025 H         1 <0>         0.1454
     34 H15         6.5164   -8.9990    0.1907 H         1 <0>         0.1502
     35 H16         4.2750  -12.3899   -1.1189 H         1 <0>         0.1520
     36 H17         2.7125  -10.9091   -2.3078 H         1 <0>         0.1394
     37 H18         0.3121   -4.4795   -2.1393 H         1 <0>         0.4278
@<TRIPOS>BOND
     1    1    2 1
     2    1   20 1
     3    1   21 1
     4    1   22 1
     5    2    3 1
     6    3    4 1
     7    3   23 1
     8    3   24 1
     9    4    5 1
    10    4   25 1
    11    4   26 1
    12    5    6 1
    13    5   27 1
    14    5   28 1
    15    6    7 1
    16    6   29 1
    17    6   37 1
    18    7    8 1
    19    7   30 1
    20    7   31 1
    21    8   12 1
    22    8    9 2
    23    9   10 1
    24    9   32 1
    25   10   11 1
    26   11   12 2
    27   11   13 1
    28   13   18 ar
    29   13   14 ar
    30   14   15 ar
    31   14   33 1
    32   15   16 ar
    33   15   34 1
    34   16   17 ar
    35   16   19 1
    36   17   18 ar
    37   17   35 1
    38   18   36 1
@<TRIPOS>MOLECULE
ZINC36827739
   34    35     0     0     0
SMALL
USER_CHARGES

@<TRIPOS>ATOM
      1 C1         -0.0187    1.5258    0.0104 C.3       1 <0>        -0.1806
      2 C2          0.0021   -0.0041    0.0020 C.3       1 <0>         0.0307
      3 H1          0.5293   -0.3651    0.8851 H         1 <0>         0.1507
      4 C3          0.7182   -0.4975   -1.2568 C.3       1 <0>         0.0505
      5 O1          0.0970    0.0703   -2.4117 O.3       1 <0>        -0.5773
      6 N1         -1.3761   -0.5125    0.0124 N.4       1 <0>        -0.5041
      7 C4         -2.0260   -0.1396    1.2760 C.3       1 <0>         0.0729
      8 C5         -3.4399   -0.6613    1.2867 C.2       1 <0>        -0.0059
      9 C6         -3.7211   -1.8535    1.8757 C.2       1 <0>        -0.1829
     10 S1         -5.4843   -1.9535    1.5930 S.3       1 <0>         0.0953
     11 C7         -5.6538   -0.4005    0.7234 C.2       1 <0>         0.1842
     12 N2         -4.4025    0.0375    0.7319 N.2       1 <0>        -0.5064
     13 C8         -6.8643    0.2285    0.1533 C.ar      1 <0>        -0.0545
     14 C9         -6.7729    1.4586   -0.4997 C.ar      1 <0>        -0.0328
     15 C10        -7.9052    2.0409   -1.0297 C.ar      1 <0>        -0.1554
     16 C11        -9.1322    1.4070   -0.9144 C.ar      1 <0>         0.1389
     17 C12        -9.2284    0.1854   -0.2670 C.ar      1 <0>        -0.1502
     18 C13        -8.1014   -0.4086    0.2611 C.ar      1 <0>        -0.0535
     19 F1        -10.2384    1.9821   -1.4346 F         1 <0>        -0.1242
     20 H2          1.0039    1.9031    0.0027 H         1 <0>         0.1048
     21 H3         -0.5459    1.8868   -0.8726 H         1 <0>         0.0914
     22 H4         -0.5289    1.8773    0.9072 H         1 <0>         0.0811
     23 H5          1.7648   -0.1951   -1.2215 H         1 <0>         0.0962
     24 H6          0.6556   -1.5845   -1.3079 H         1 <0>         0.0717
     25 H7          0.5004   -0.1997   -3.2480 H         1 <0>         0.4088
     26 H8         -1.8879   -0.1129   -0.7598 H         1 <0>         0.4361
     27 H9         -1.4732   -0.5714    2.1102 H         1 <0>         0.1457
     28 H10        -2.0386    0.9461    1.3715 H         1 <0>         0.1468
     29 H11        -3.0623   -2.5482    2.3756 H         1 <0>         0.2106
     30 H12        -5.8173    1.9537   -0.5894 H         1 <0>         0.1457
     31 H13        -7.8356    2.9928   -1.5351 H         1 <0>         0.1502
     32 H14       -10.1870   -0.3044   -0.1799 H         1 <0>         0.1518
     33 H15        -8.1766   -1.3629    0.7612 H         1 <0>         0.1393
     34 H16        -1.3644   -1.5176   -0.0760 H         1 <0>         0.4242
@<TRIPOS>BOND
     1    1    2 1
     2    1   20 1
     3    1   21 1
     4    1   22 1
     5    2    3 1
     6    2    4 1
     7    2    6 1
     8    4    5 1
     9    4   23 1
    10    4   24 1
    11    5   25 1
    12    6    7 1
    13    6   26 1
    14    6   34 1
    15    7    8 1
    16    7   27 1
    17    7   28 1
    18    8   12 1
    19    8    9 2
    20    9   10 1
    21    9   29 1
    22   10   11 1
    23   11   12 2
    24   11   13 1
    25   13   18 ar
    26   13   14 ar
    27   14   15 ar
    28   14   30 1
    29   15   16 ar
    30   15   31 1
    31   16   17 ar
    32   16   19 1
    33   17   18 ar
    34   17   32 1
    35   18   33 1
@<TRIPOS>MOLECULE
ZINC35154820
   39    40     0     0     0
SMALL
USER_CHARGES

@<TRIPOS>ATOM
      1 C1         -0.0187    1.5258    0.0104 C.3       1 <0>        -0.1888
      2 C2          0.0021   -0.0041    0.0020 C.3       1 <0>         0.0270
      3 H1          0.5123   -0.3556   -0.8948 H         1 <0>         0.1416
      4 C3         -1.4333   -0.5336    0.0129 C.3       1 <0>        -0.1123
      5 C4         -2.1868    0.0597    1.2050 C.3       1 <0>        -0.1734
      6 C5         -2.1352   -0.1312   -1.2857 C.3       1 <0>        -0.1531
      7 N1          0.7126   -0.4907    1.1921 N.4       1 <0>        -0.5068
      8 C6          2.1220   -0.0825    1.1220 C.3       1 <0>         0.0738
      9 C7          2.8508   -0.5817    2.3429 C.2       1 <0>        -0.0071
     10 C8          3.5314   -1.7575    2.2962 C.2       1 <0>        -0.1819
     11 S1          4.1702   -1.8356    3.9648 S.3       1 <0>         0.0964
     12 C9          3.4630   -0.2978    4.5410 C.2       1 <0>         0.1833
     13 N2          2.8341    0.1207    3.4515 N.2       1 <0>        -0.5072
     14 C10         3.5585    0.3384    5.8721 C.ar      1 <0>        -0.0543
     15 C11         2.9166    1.5536    6.1152 C.ar      1 <0>        -0.0333
     16 C12         3.0089    2.1428    7.3587 C.ar      1 <0>        -0.1554
     17 C13         3.7378    1.5305    8.3659 C.ar      1 <0>         0.1389
     18 C14         4.3771    0.3238    8.1299 C.ar      1 <0>        -0.1499
     19 C15         4.2861   -0.2771    6.8918 C.ar      1 <0>        -0.0534
     20 F1          3.8258    2.1123    9.5820 F         1 <0>        -0.1241
     21 H2          1.0039    1.9031    0.0027 H         1 <0>         0.0820
     22 H3         -0.5459    1.8868   -0.8726 H         1 <0>         0.1090
     23 H4         -0.5289    1.8773    0.9072 H         1 <0>         0.0860
     24 H5         -1.4190   -1.6203    0.0965 H         1 <0>         0.0936
     25 H6         -2.2011    1.1464    1.1214 H         1 <0>         0.0768
     26 H7         -3.2094   -0.3176    1.2127 H         1 <0>         0.0831
     27 H8         -1.6868   -0.2270    2.1301 H         1 <0>         0.0507
     28 H9         -1.5984   -0.5539   -2.1349 H         1 <0>         0.0679
     29 H10        -3.1578   -0.5085   -1.2779 H         1 <0>         0.0776
     30 H11        -2.1495    0.9555   -1.3693 H         1 <0>         0.0702
     31 H12         0.2896   -0.0986    2.0201 H         1 <0>         0.4278
     32 H13         2.5788   -0.5061    0.2276 H         1 <0>         0.1459
     33 H14         2.1837    1.0050    1.0814 H         1 <0>         0.1467
     34 H15         3.6524   -2.4522    1.4781 H         1 <0>         0.2107
     35 H16         2.3489    2.0319    5.3307 H         1 <0>         0.1453
     36 H17         2.5126    3.0831    7.5478 H         1 <0>         0.1501
     37 H18         4.9439   -0.1492    8.9182 H         1 <0>         0.1519
     38 H19         4.7806   -1.2199    6.7104 H         1 <0>         0.1394
     39 H20         0.6554   -1.4974    1.2298 H         1 <0>         0.4254
@<TRIPOS>BOND
     1    1    2 1
     2    1   21 1
     3    1   22 1
     4    1   23 1
     5    2    3 1
     6    2    4 1
     7    2    7 1
     8    4    5 1
     9    4    6 1
    10    4   24 1
    11    5   25 1
    12    5   26 1
    13    5   27 1
    14    6   28 1
    15    6   29 1
    16    6   30 1
    17    7    8 1
    18    7   31 1
    19    7   39 1
    20    8    9 1
    21    8   32 1
    22    8   33 1
    23    9   13 1
    24    9   10 2
    25   10   11 1
    26   10   34 1
    27   11   12 1
    28   12   13 2
    29   12   14 1
    30   14   19 ar
    31   14   15 ar
    32   15   16 ar
    33   15   35 1
    34   16   17 ar
    35   16   36 1
    36   17   18 ar
    37   17   20 1
    38   18   19 ar
    39   18   37 1
    40   19   38 1
@<TRIPOS>MOLECULE
ZINC36912288
   30    32     0     0     0
SMALL
USER_CHARGES

@<TRIPOS>ATOM
      1 C1         -0.0167    1.3786    0.0096 C.ar      1 <0>        -0.1081
      2 C2          1.1675    2.0879    0.0021 C.ar      1 <0>        -0.0819
      3 C3          2.3841    1.4084   -0.0132 C.ar      1 <0>        -0.0115
      4 C4          2.3983    0.0148   -0.0208 C.ar      1 <0>        -0.0980
      5 C5          1.2077   -0.6850   -0.0132 C.ar      1 <0>        -0.0345
      6 C6          0.0021   -0.0041    0.0020 C.ar      1 <0>        -0.1052
      7 Cl1         1.2225   -2.4209   -0.0233 Cl        1 <0>        -0.0662
      8 C7          3.6596    2.1658   -0.0218 C.2       1 <0>         0.1033
      9 C8          4.8579    1.5016   -0.0420 C.2       1 <0>        -0.2010
     10 S1          5.9997    2.8778   -0.0434 S.3       1 <0>         0.0117
     11 C9          4.7769    4.1814   -0.0173 C.2       1 <0>         0.1877
     12 N1          3.6504    3.4861   -0.0155 N.2       1 <0>        -0.5033
     13 C10         4.9718    5.6464   -0.0060 C.ar      1 <0>        -0.0881
     14 C11         3.8663    6.4989    0.0210 C.ar      1 <0>        -0.0137
     15 C12         4.0512    7.8642    0.0320 C.ar      1 <0>        -0.2020
     16 C13         5.3372    8.3933    0.0157 C.ar      1 <0>         0.2415
     17 C14         6.4402    7.5468   -0.0116 C.ar      1 <0>        -0.1985
     18 C15         6.2618    6.1806   -0.0164 C.ar      1 <0>        -0.0351
     19 N2          5.5211    9.7760    0.0264 N.pl3     1 <0>        -0.8691
     20 H1         -0.9598    1.9047    0.0260 H         1 <0>         0.1363
     21 H2          1.1512    3.1677    0.0077 H         1 <0>         0.1395
     22 H3          3.3383   -0.5168   -0.0330 H         1 <0>         0.1349
     23 H4         -0.9269   -0.5548    0.0079 H         1 <0>         0.1354
     24 H5          5.0576    0.4403   -0.0534 H         1 <0>         0.1996
     25 H6          2.8674    6.0886    0.0329 H         1 <0>         0.1356
     26 H7          3.1965    8.5241    0.0528 H         1 <0>         0.1296
     27 H8          7.4376    7.9606   -0.0245 H         1 <0>         0.1300
     28 H9          7.1188    5.5236   -0.0328 H         1 <0>         0.1271
     29 H10         4.7524   10.3674    0.0452 H         1 <0>         0.4021
     30 H11         6.4176   10.1461    0.0151 H         1 <0>         0.4018
@<TRIPOS>BOND
     1    1    6 ar
     2    1    2 ar
     3    1   20 1
     4    2    3 ar
     5    2   21 1
     6    3    4 ar
     7    3    8 1
     8    4    5 ar
     9    4   22 1
    10    5    6 ar
    11    5    7 1
    12    6   23 1
    13    8   12 1
    14    8    9 2
    15    9   10 1
    16    9   24 1
    17   10   11 1
    18   11   12 2
    19   11   13 1
    20   13   18 ar
    21   13   14 ar
    22   14   15 ar
    23   14   25 1
    24   15   16 ar
    25   15   26 1
    26   16   17 ar
    27   16   19 1
    28   17   18 ar
    29   17   27 1
    30   18   28 1
    31   19   29 1
    32   19   30 1
@<TRIPOS>MOLECULE
ZINC88870652
   34    36     0     0     0
SMALL
USER_CHARGES

@<TRIPOS>ATOM
      1 C1         -0.0166    1.3758    0.0096 C.ar      1 <0>        -0.1126
      2 C2          1.1701    2.0869    0.0021 C.ar      1 <0>        -0.0947
      3 C3          2.3818    1.4204   -0.0130 C.ar      1 <0>        -0.1140
      4 C4          2.4130    0.0393   -0.0207 C.ar      1 <0>        -0.0066
      5 C5          1.2196   -0.6820   -0.0132 C.ar      1 <0>        -0.0282
      6 C6          0.0021   -0.0041    0.0020 C.ar      1 <0>        -0.0924
      7 C7          1.2460   -2.1652   -0.0218 C.2       1 <0>         0.0937
      8 C8          0.0749   -2.8779   -0.0196 C.2       1 <0>        -0.1682
      9 S1          0.7057   -4.5511   -0.0325 S.3       1 <0>         0.0475
     10 C9          2.4437   -4.1333   -0.0394 C.2       1 <0>         0.1121
     11 N1          2.3969   -2.8106   -0.0372 N.2       1 <0>        -0.4494
     12 C10         3.6212   -5.0278   -0.0501 C.ar      1 <0>         0.0407
     13 C11         4.9092   -4.4909   -0.0478 C.ar      1 <0>        -0.0740
     14 C12         6.0035   -5.3310   -0.0579 C.ar      1 <0>        -0.0879
     15 C13         5.8260   -6.7030   -0.0707 C.ar      1 <0>        -0.1637
     16 C14         4.5517   -7.2417   -0.0736 C.ar      1 <0>        -0.0849
     17 C15         3.4490   -6.4126   -0.0569 C.ar      1 <0>        -0.0957
     18 C16         7.0259   -7.6146   -0.0822 C.3       1 <0>         0.0474
     19 N2          7.4189   -7.9242    1.2990 N.4       1 <0>        -0.6374
     20 Cl1         3.9346   -0.7963   -0.0402 Cl        1 <0>        -0.0448
     21 H1         -0.9598    1.9017    0.0259 H         1 <0>         0.1369
     22 H2          1.1502    3.1667    0.0077 H         1 <0>         0.1377
     23 H3          3.3051    1.9806   -0.0192 H         1 <0>         0.1379
     24 H4         -0.9252   -0.5577    0.0082 H         1 <0>         0.1344
     25 H5         -0.9462   -2.5261   -0.0117 H         1 <0>         0.2081
     26 H6          5.0491   -3.4200   -0.0385 H         1 <0>         0.1437
     27 H7          7.0009   -4.9167   -0.0561 H         1 <0>         0.1398
     28 H8          4.4198   -8.3136   -0.0844 H         1 <0>         0.1412
     29 H9          2.4548   -6.8344   -0.0543 H         1 <0>         0.1403
     30 H10         6.7757   -8.5381   -0.6044 H         1 <0>         0.1423
     31 H11         7.8525   -7.1209   -0.5931 H         1 <0>         0.1420
     32 H12         7.6506   -7.0694    1.7824 H         1 <0>         0.4353
     33 H13         6.6537   -8.3813    1.7719 H         1 <0>         0.4350
     34 H14         8.2223   -8.5346    1.2913 H         1 <0>         0.4386
@<TRIPOS>BOND
     1    1    6 ar
     2    1    2 ar
     3    1   21 1
     4    2    3 ar
     5    2   22 1
     6    3    4 ar
     7    3   23 1
     8    4    5 ar
     9    4   20 1
    10    5    6 ar
    11    5    7 1
    12    6   24 1
    13    7   11 1
    14    7    8 2
    15    8    9 1
    16    8   25 1
    17    9   10 1
    18   10   11 2
    19   10   12 1
    20   12   17 ar
    21   12   13 ar
    22   13   14 ar
    23   13   26 1
    24   14   15 ar
    25   14   27 1
    26   15   16 ar
    27   15   18 1
    28   16   17 ar
    29   16   28 1
    30   17   29 1
    31   18   19 1
    32   18   30 1
    33   18   31 1
    34   19   32 1
    35   19   33 1
    36   19   34 1
@<TRIPOS>MOLECULE
ZINC02569099
   21    22     0     0     0
SMALL
USER_CHARGES

@<TRIPOS>ATOM
      1 C1         -0.0166    1.3752    0.0096 C.ar      1 <0>        -0.1125
      2 C2          1.1701    2.0869    0.0021 C.ar      1 <0>        -0.0880
      3 C3          2.3826    1.4218   -0.0130 C.ar      1 <0>        -0.1060
      4 C4          2.4159    0.0410   -0.0212 C.ar      1 <0>        -0.0233
      5 C5          1.2216   -0.6825   -0.0136 C.ar      1 <0>        -0.0050
      6 C6          0.0021   -0.0041    0.0020 C.ar      1 <0>        -0.0597
      7 C7          1.2488   -2.1607   -0.0228 C.2       1 <0>         0.1366
      8 N1          0.2401   -3.0208   -0.0234 N.2       1 <0>        -0.4790
      9 C8          0.4494   -4.3164   -0.0329 C.2       1 <0>         0.0346
     10 C9          1.7209   -4.7972   -0.0424 C.2       1 <0>        -0.2008
     11 S1          2.6512   -3.2697   -0.0439 S.3       1 <0>         0.0793
     12 C10        -0.7179   -5.2696   -0.0328 C.3       1 <0>         0.0369
     13 Cl1        -1.1921   -5.6392   -1.7326 Cl        1 <0>        -0.1681
     14 Cl2         3.9384   -0.7927   -0.0413 Cl        1 <0>        -0.0352
     15 H1         -0.9599    1.9010    0.0259 H         1 <0>         0.1402
     16 H2          1.1494    3.1667    0.0077 H         1 <0>         0.1407
     17 H3          3.3052    1.9832   -0.0188 H         1 <0>         0.1436
     18 H4         -0.9251   -0.5578    0.0082 H         1 <0>         0.1462
     19 H5          2.0720   -5.8185   -0.0509 H         1 <0>         0.2000
     20 H6         -0.4338   -6.1919    0.4739 H         1 <0>         0.1105
     21 H7         -1.5596   -4.8132    0.4881 H         1 <0>         0.1088
@<TRIPOS>BOND
     1    1    6 ar
     2    1    2 ar
     3    1   15 1
     4    2    3 ar
     5    2   16 1
     6    3    4 ar
     7    3   17 1
     8    4    5 ar
     9    4   14 1
    10    5    6 ar
    11    5    7 1
    12    6   18 1
    13    7   11 1
    14    7    8 2
    15    8    9 1
    16    9   10 2
    17    9   12 1
    18   10   11 1
    19   10   19 1
    20   12   13 1
    21   12   20 1
    22   12   21 1
@<TRIPOS>MOLECULE
ZINC02569102
   24    25     0     0     0
SMALL
USER_CHARGES
4-(chloromethyl)-2-(p-tolyl)thiazole
@<TRIPOS>ATOM
      1 C1         -2.5541    3.8649    0.0473 C.3       1 <0>        -0.1211
      2 C2         -1.2362    3.1342    0.0308 C.ar      1 <0>        -0.0619
      3 C3         -1.2158    1.7509    0.0173 C.ar      1 <0>        -0.1199
      4 C4         -0.0126    1.0758    0.0080 C.ar      1 <0>        -0.0849
      5 C5          1.1854    1.7914    0.0004 C.ar      1 <0>        -0.0292
      6 C6          1.1578    3.1866    0.0082 C.ar      1 <0>        -0.0625
      7 C7         -0.0520    3.8496    0.0233 C.ar      1 <0>        -0.1224
      8 C8          2.4785    1.0744   -0.0164 C.2       1 <0>         0.1657
      9 N1          3.7110    1.5624   -0.0256 N.2       1 <0>        -0.4895
     10 C9          4.7573    0.7705   -0.0399 C.2       1 <0>         0.0414
     11 C10         4.5861   -0.5782   -0.0456 C.2       1 <0>        -0.1829
     12 S1          2.8009   -0.6842   -0.0217 S.3       1 <0>         0.0268
     13 C11         6.1463    1.3551   -0.0507 C.3       1 <0>         0.0363
     14 Cl1         6.7172    1.5789    1.6448 Cl        1 <0>        -0.1663
     15 H1         -2.8816    4.0466   -0.9763 H         1 <0>         0.0761
     16 H2         -3.2985    3.2600    0.5651 H         1 <0>         0.0705
     17 H3         -2.4353    4.8167    0.5652 H         1 <0>         0.0707
     18 H4         -2.1437    1.1982    0.0187 H         1 <0>         0.1322
     19 H5          0.0021   -0.0041    0.0020 H         1 <0>         0.1274
     20 H6          2.0815    3.7462    0.0020 H         1 <0>         0.1365
     21 H7         -0.0748    4.9293    0.0297 H         1 <0>         0.1321
     22 H8          5.3237   -1.3670   -0.0574 H         1 <0>         0.2034
     23 H9          6.8212    0.6786   -0.5750 H         1 <0>         0.1114
     24 H10         6.1308    2.3191   -0.5591 H         1 <0>         0.1100
@<TRIPOS>BOND
     1    1    2 1
     2    1   15 1
     3    1   16 1
     4    1   17 1
     5    2    7 ar
     6    2    3 ar
     7    3    4 ar
     8    3   18 1
     9    4    5 ar
    10    4   19 1
    11    5    6 ar
    12    5    8 1
    13    6    7 ar
    14    6   20 1
    15    7   21 1
    16    8   12 1
    17    8    9 2
    18    9   10 1
    19   10   11 2
    20   10   13 1
    21   11   12 1
    22   11   22 1
    23   13   14 1
    24   13   23 1
    25   13   24 1
@<TRIPOS>MOLECULE
ZINC82880294
   24    25     0     0     0
SMALL
USER_CHARGES

@<TRIPOS>ATOM
      1 C1         -0.0184    1.5028    0.0103 C.3       1 <0>        -0.1211
      2 C2          0.0021   -0.0041    0.0020 C.ar      1 <0>        -0.0619
      3 C3          0.0057   -0.6862   -1.2016 C.ar      1 <0>        -0.1199
      4 C4          0.0249   -2.0657   -1.2161 C.ar      1 <0>        -0.0848
      5 C5          0.0405   -2.7729   -0.0132 C.ar      1 <0>        -0.0288
      6 C6          0.0368   -2.0788    1.1974 C.ar      1 <0>        -0.0622
      7 C7          0.0229   -0.6992    1.1980 C.ar      1 <0>        -0.1225
      8 C8          0.0606   -4.2514   -0.0214 C.2       1 <0>         0.1679
      9 N1          0.0718   -5.0983    0.9984 N.2       1 <0>        -0.4908
     10 C9          0.0895   -6.3962    0.8061 C.2       1 <0>         0.0575
     11 C10         0.0966   -6.8936   -0.4593 C.2       1 <0>        -0.1892
     12 S1          0.0683   -5.3786   -1.4093 S.3       1 <0>         0.0265
     13 C11         0.1024   -7.3339    1.9857 C.3       1 <0>        -0.0198
     14 I1         -1.9295   -7.8108    2.5496 I         1 <0>        -0.1244
     15 H1          1.0042    1.8801    0.0026 H         1 <0>         0.0760
     16 H2         -0.5455    1.8639   -0.8728 H         1 <0>         0.0704
     17 H3         -0.5286    1.8543    0.9071 H         1 <0>         0.0706
     18 H4         -0.0068   -0.1377   -2.1319 H         1 <0>         0.1320
     19 H5          0.0273   -2.5970   -2.1564 H         1 <0>         0.1273
     20 H6          0.0485   -2.6203    2.1317 H         1 <0>         0.1362
     21 H7          0.0244   -0.1607    2.1343 H         1 <0>         0.1318
     22 H8          0.1111   -7.9193   -0.7971 H         1 <0>         0.2013
     23 H9          0.6291   -8.2494    1.7164 H         1 <0>         0.1141
     24 H10         0.6095   -6.8562    2.8240 H         1 <0>         0.1139
@<TRIPOS>BOND
     1    1    2 1
     2    1   15 1
     3    1   16 1
     4    1   17 1
     5    2    7 ar
     6    2    3 ar
     7    3    4 ar
     8    3   18 1
     9    4    5 ar
    10    4   19 1
    11    5    6 ar
    12    5    8 1
    13    6    7 ar
    14    6   20 1
    15    7   21 1
    16    8   12 1
    17    8    9 2
    18    9   10 1
    19   10   11 2
    20   10   13 1
    21   11   12 1
    22   11   22 1
    23   13   14 1
    24   13   23 1
    25   13   24 1
@<TRIPOS>MOLECULE
ZINC43388154
   31    33     0     0     0
SMALL
USER_CHARGES

@<TRIPOS>ATOM
      1 C1         -0.0167    1.3779    0.0096 C.ar      1 <0>        -0.1367
      2 C2          1.1835    2.0893    0.0020 C.ar      1 <0>         0.0239
      3 C3          2.3968    1.4007   -0.0133 C.ar      1 <0>        -0.1152
      4 C4          2.4041    0.0187   -0.0208 C.ar      1 <0>         0.1396
      5 C5          1.2096   -0.6828   -0.0136 C.ar      1 <0>        -0.1625
      6 C6          0.0021   -0.0041    0.0020 C.ar      1 <0>         0.1455
      7 F1         -1.1593   -0.6942    0.0098 F         1 <0>        -0.1159
      8 F2          3.5783   -0.6493   -0.0356 F         1 <0>        -0.1179
      9 C7          1.1695    3.5680    0.0096 C.2       1 <0>         0.1668
     10 N1          2.1859    4.4190   -0.0011 N.2       1 <0>        -0.4958
     11 C8          1.9885    5.7163    0.0083 C.2       1 <0>        -0.0124
     12 C9          0.7213    6.2086    0.0293 C.2       1 <0>        -0.1736
     13 S1         -0.2228    4.6896    0.0276 S.3       1 <0>         0.1190
     14 C10         3.1644    6.6587   -0.0037 C.3       1 <0>         0.0829
     15 N2          3.6420    6.8633    1.3703 N.4       1 <0>        -0.4785
     16 C11         4.7882    7.7820    1.3586 C.3       1 <0>        -0.0844
     17 C12         6.1368    7.2351    1.8308 C.3       1 <0>        -0.1533
     18 C13         5.3591    8.2165    2.7100 C.3       1 <0>        -0.1538
     19 H1         -0.9586    1.9060    0.0260 H         1 <0>         0.1495
     20 H2          3.3287    1.9467   -0.0196 H         1 <0>         0.1553
     21 H3          1.2198   -1.7627   -0.0202 H         1 <0>         0.1627
     22 H4          0.3796    7.2331    0.0399 H         1 <0>         0.2138
     23 H5          3.9656    6.2323   -0.6072 H         1 <0>         0.1465
     24 H6          2.8592    7.6150   -0.4285 H         1 <0>         0.1473
     25 H7          2.9002    7.2581    1.9290 H         1 <0>         0.4269
     26 H8          4.7964    8.5132    0.5502 H         1 <0>         0.1797
     27 H9          6.1735    6.1936    2.1502 H         1 <0>         0.1213
     28 H10         7.0326    7.6062    1.3330 H         1 <0>         0.1347
     29 H11         5.7433    9.2334    2.7905 H         1 <0>         0.1351
     30 H12         4.8842    7.8207    3.6077 H         1 <0>         0.1206
     31 H13         3.9245    5.9781    1.7635 H         1 <0>         0.4288
@<TRIPOS>BOND
     1    1    6 ar
     2    1    2 ar
     3    1   19 1
     4    2    3 ar
     5    2    9 1
     6    3    4 ar
     7    3   20 1
     8    4    5 ar
     9    4    8 1
    10    5    6 ar
    11    5   21 1
    12    6    7 1
    13    9   13 1
    14    9   10 2
    15   10   11 1
    16   11   12 2
    17   11   14 1
    18   12   13 1
    19   12   22 1
    20   14   15 1
    21   14   23 1
    22   14   24 1
    23   15   16 1
    24   15   25 1
    25   15   31 1
    26   16   18 1
    27   16   17 1
    28   16   26 1
    29   17   18 1
    30   17   27 1
    31   17   28 1
    32   18   29 1
    33   18   30 1
@<TRIPOS>MOLECULE
ZINC40999717
   34    36     0     0     0
SMALL
USER_CHARGES

@<TRIPOS>ATOM
      1 C1         -0.0184    1.5028    0.0103 C.3       1 <0>        -0.1272
      2 C2          0.0021   -0.0041    0.0020 C.ar      1 <0>        -0.0804
      3 C3          0.0057   -0.6864   -1.2013 C.ar      1 <0>        -0.0882
      4 C4          0.0249   -2.0657   -1.2162 C.ar      1 <0>        -0.0893
      5 C5          0.0406   -2.7744   -0.0139 C.ar      1 <0>        -0.0197
      6 C6          0.0368   -2.0825    1.1974 C.ar      1 <0>        -0.0966
      7 C7          0.0229   -0.7004    1.1996 C.ar      1 <0>         0.0985
      8 F1          0.0248   -0.0277    2.3712 F         1 <0>        -0.1265
      9 C8          0.0606   -4.2530   -0.0241 C.2       1 <0>         0.1799
     10 N1          0.0719   -5.1013    0.9945 N.2       1 <0>        -0.5056
     11 C9          0.0895   -6.3989    0.8004 C.2       1 <0>        -0.0099
     12 C10         0.0966   -6.8946   -0.4656 C.2       1 <0>        -0.1803
     13 S1          0.0683   -5.3783   -1.4136 S.3       1 <0>         0.1043
     14 C11         0.1025   -7.3382    1.9788 C.3       1 <0>         0.0829
     15 N2          1.4849   -7.5298    2.4372 N.4       1 <0>        -0.4784
     16 C12         1.4975   -8.4454    3.5858 C.3       1 <0>        -0.0842
     17 C13         1.9844   -7.8908    4.9261 C.3       1 <0>        -0.1535
     18 C14         2.8606   -8.8668    4.1384 C.3       1 <0>        -0.1538
     19 H1          1.0042    1.8801    0.0026 H         1 <0>         0.0854
     20 H2         -0.5455    1.8639   -0.8728 H         1 <0>         0.0821
     21 H3         -0.5286    1.8543    0.9071 H         1 <0>         0.0779
     22 H4         -0.0068   -0.1379   -2.1316 H         1 <0>         0.1491
     23 H5          0.0273   -2.5964   -2.1568 H         1 <0>         0.1365
     24 H6          0.0489   -2.6254    2.1310 H         1 <0>         0.1472
     25 H7          0.1105   -7.9198   -0.8048 H         1 <0>         0.2117
     26 H8         -0.4931   -6.9148    2.7876 H         1 <0>         0.1456
     27 H9         -0.3184   -8.2990    1.6823 H         1 <0>         0.1464
     28 H10         2.0362   -7.9218    1.6885 H         1 <0>         0.4267
     29 H11         0.6957   -9.1834    3.6076 H         1 <0>         0.1795
     30 H12         2.2953   -6.8465    4.9555 H         1 <0>         0.1211
     31 H13         1.5026   -8.2637    5.8299 H         1 <0>         0.1346
     32 H14         2.9554   -9.8819    4.5241 H         1 <0>         0.1350
     33 H15         3.7480   -8.4647    3.6496 H         1 <0>         0.1204
     34 H16         1.8745   -6.6405    2.7117 H         1 <0>         0.4287
@<TRIPOS>BOND
     1    1    2 1
     2    1   19 1
     3    1   20 1
     4    1   21 1
     5    2    7 ar
     6    2    3 ar
     7    3    4 ar
     8    3   22 1
     9    4    5 ar
    10    4   23 1
    11    5    6 ar
    12    5    9 1
    13    6    7 ar
    14    6   24 1
    15    7    8 1
    16    9   13 1
    17    9   10 2
    18   10   11 1
    19   11   12 2
    20   11   14 1
    21   12   13 1
    22   12   25 1
    23   14   15 1
    24   14   26 1
    25   14   27 1
    26   15   16 1
    27   15   28 1
    28   15   34 1
    29   16   18 1
    30   16   17 1
    31   16   29 1
    32   17   18 1
    33   17   30 1
    34   17   31 1
    35   18   32 1
    36   18   33 1
@<TRIPOS>MOLECULE
ZINC88567492
   37    38     0     0     0
SMALL
USER_CHARGES

@<TRIPOS>ATOM
      1 C1         -0.0187    1.5258    0.0104 C.3       1 <0>        -0.1901
      2 C2          0.0021   -0.0041    0.0020 C.3       1 <0>        -0.0094
      3 N1         -1.3761   -0.5125    0.0124 N.4       1 <0>        -0.5090
      4 C3         -1.3562   -1.9814    0.0044 C.3       1 <0>         0.0781
      5 C4         -2.7700   -2.5030    0.0151 C.2       1 <0>        -0.0090
      6 C5         -3.3827   -2.8334   -1.1528 C.2       1 <0>        -0.1842
      7 S1         -4.9783   -3.3693   -0.5480 S.3       1 <0>         0.0940
      8 C6         -4.6557   -3.0954    1.1892 C.2       1 <0>         0.1860
      9 N2         -3.4098   -2.6441    1.1520 N.2       1 <0>        -0.5088
     10 C7         -5.5389   -3.3177    2.3541 C.ar      1 <0>        -0.0376
     11 C8         -5.0859   -3.0291    3.6421 C.ar      1 <0>        -0.0641
     12 C9         -5.9150   -3.2388    4.7248 C.ar      1 <0>        -0.0996
     13 C10        -7.1927   -3.7345    4.5357 C.ar      1 <0>        -0.0530
     14 C11        -7.6477   -4.0232    3.2614 C.ar      1 <0>        -0.0943
     15 C12        -6.8310   -3.8117    2.1697 C.ar      1 <0>        -0.0846
     16 C13        -8.0926   -3.9616    5.7230 C.3       1 <0>         0.0917
     17 O1         -8.8476   -2.7763    5.9820 O.3       1 <0>        -0.3856
     18 C14        -9.7377   -2.8857    7.0946 C.3       1 <0>         0.0287
     19 H1          1.0039    1.9031    0.0027 H         1 <0>         0.1081
     20 H2         -0.5459    1.8868   -0.8726 H         1 <0>         0.0804
     21 H3         -0.5289    1.8773    0.9072 H         1 <0>         0.0807
     22 H4          0.5123   -0.3556   -0.8948 H         1 <0>         0.1323
     23 H5          0.5293   -0.3651    0.8851 H         1 <0>         0.1324
     24 H6         -1.8484   -0.1871    0.8426 H         1 <0>         0.4311
     25 H7         -0.8460   -2.3329   -0.8924 H         1 <0>         0.1455
     26 H8         -0.8290   -2.3425    0.8874 H         1 <0>         0.1448
     27 H9         -3.0096   -2.7853   -2.1651 H         1 <0>         0.2101
     28 H10        -4.0885   -2.6427    3.7910 H         1 <0>         0.1369
     29 H11        -5.5656   -3.0158    5.7221 H         1 <0>         0.1374
     30 H12        -8.6460   -4.4103    3.1205 H         1 <0>         0.1391
     31 H13        -7.1891   -4.0325    1.1751 H         1 <0>         0.1311
     32 H14        -8.7728   -4.7865    5.5109 H         1 <0>         0.0660
     33 H15        -7.4875   -4.2050    6.5963 H         1 <0>         0.0655
     34 H16       -10.2734   -1.9454    7.2251 H         1 <0>         0.0915
     35 H17       -10.4520   -3.6883    6.9109 H         1 <0>         0.0460
     36 H18        -9.1667   -3.1068    7.9963 H         1 <0>         0.0456
     37 H19        -1.8641   -0.1783   -0.8050 H         1 <0>         0.4260
@<TRIPOS>BOND
     1    1    2 1
     2    1   19 1
     3    1   20 1
     4    1   21 1
     5    2    3 1
     6    2   22 1
     7    2   23 1
     8    3    4 1
     9    3   24 1
    10    3   37 1
    11    4    5 1
    12    4   25 1
    13    4   26 1
    14    5    9 1
    15    5    6 2
    16    6    7 1
    17    6   27 1
    18    7    8 1
    19    8    9 2
    20    8   10 1
    21   10   15 ar
    22   10   11 ar
    23   11   12 ar
    24   11   28 1
    25   12   13 ar
    26   12   29 1
    27   13   14 ar
    28   13   16 1
    29   14   15 ar
    30   14   30 1
    31   15   31 1
    32   16   17 1
    33   16   32 1
    34   16   33 1
    35   17   18 1
    36   18   34 1
    37   18   35 1
    38   18   36 1
@<TRIPOS>MOLECULE
ZINC14193477
   34    36     0     0     0
SMALL
USER_CHARGES

@<TRIPOS>ATOM
      1 C1         -0.0167    1.3793    0.0096 C.ar      1 <0>        -0.0833
      2 C2          1.1684    2.0932    0.0021 C.ar      1 <0>        -0.1146
      3 C3          2.3774    1.4288   -0.0130 C.ar      1 <0>        -0.0843
      4 C4          2.4033    0.0336   -0.0208 C.ar      1 <0>        -0.0430
      5 C5          1.2044   -0.6806   -0.0131 C.ar      1 <0>        -0.0642
      6 C6          0.0021   -0.0041    0.0020 C.ar      1 <0>        -0.1204
      7 C7          3.6955   -0.6850   -0.0375 C.2       1 <0>         0.1854
      8 N1          3.9328   -1.9891   -0.0523 N.2       1 <0>        -0.5077
      9 C8          5.1581   -2.4586   -0.0660 C.2       1 <0>        -0.0024
     10 C9          6.2126   -1.6003   -0.0651 C.2       1 <0>        -0.1853
     11 S1          5.3587   -0.0288   -0.0511 S.3       1 <0>         0.0882
     12 C10         5.3961   -3.9466   -0.0821 C.3       1 <0>         0.0804
     13 N2          5.3640   -4.4625    1.2929 N.4       1 <0>        -0.3931
     14 C11         3.9859   -4.3765    1.8402 C.3       1 <0>         0.0040
     15 C12         3.9927   -5.4217    2.9839 C.3       1 <0>        -0.1463
     16 C13         4.8621   -6.5616    2.4053 C.3       1 <0>        -0.1440
     17 C14         5.7144   -5.8994    1.3068 C.3       1 <0>        -0.0081
     18 H1         -0.9605    1.9041    0.0260 H         1 <0>         0.1357
     19 H2          1.1469    3.1730    0.0078 H         1 <0>         0.1380
     20 H3          3.3018    1.9873   -0.0192 H         1 <0>         0.1283
     21 H4          1.2177   -1.7605   -0.0194 H         1 <0>         0.1337
     22 H5         -0.9265   -0.5556    0.0083 H         1 <0>         0.1362
     23 H6          7.2721   -1.8094   -0.0745 H         1 <0>         0.2091
     24 H7          4.6181   -4.4326   -0.6708 H         1 <0>         0.1418
     25 H8          6.3701   -4.1540   -0.5254 H         1 <0>         0.1428
     26 H9          3.7893   -3.3786    2.2322 H         1 <0>         0.1282
     27 H10         3.2524   -4.6434    1.0794 H         1 <0>         0.1358
     28 H11         4.4489   -5.0069    3.8828 H         1 <0>         0.0956
     29 H12         2.9821   -5.7742    3.1903 H         1 <0>         0.1161
     30 H13         5.5035   -6.9794    3.1813 H         1 <0>         0.1048
     31 H14         4.2300   -7.3392    1.9765 H         1 <0>         0.1041
     32 H15         5.4859   -6.3467    0.3394 H         1 <0>         0.1318
     33 H16         6.7733   -6.0212    1.5344 H         1 <0>         0.1327
     34 H17         6.0037   -3.9428    1.8750 H         1 <0>         0.4242
@<TRIPOS>BOND
     1    1    6 ar
     2    1    2 ar
     3    1   18 1
     4    2    3 ar
     5    2   19 1
     6    3    4 ar
     7    3   20 1
     8    4    5 ar
     9    4    7 1
    10    5    6 ar
    11    5   21 1
    12    6   22 1
    13    7   11 1
    14    7    8 2
    15    8    9 1
    16    9   10 2
    17    9   12 1
    18   10   11 1
    19   10   23 1
    20   12   13 1
    21   12   24 1
    22   12   25 1
    23   13   17 1
    24   13   14 1
    25   13   34 1
    26   14   15 1
    27   14   26 1
    28   14   27 1
    29   15   16 1
    30   15   28 1
    31   15   29 1
    32   16   17 1
    33   16   30 1
    34   16   31 1
    35   17   32 1
    36   17   33 1
@<TRIPOS>MOLECULE
ZINC06730013
   31    32     0     0     0
SMALL
USER_CHARGES
N-[[2-(p-tolyl)thiazol-4-yl]methyl]acetamide
@<TRIPOS>ATOM
      1 C1         -2.5541    3.8649    0.0473 C.3       1 <0>        -0.1214
      2 C2         -1.2362    3.1342    0.0308 C.ar      1 <0>        -0.0615
      3 C3         -1.2158    1.7509    0.0173 C.ar      1 <0>        -0.1200
      4 C4         -0.0126    1.0758    0.0080 C.ar      1 <0>        -0.0848
      5 C5          1.1854    1.7914    0.0004 C.ar      1 <0>        -0.0296
      6 C6          1.1578    3.1866    0.0082 C.ar      1 <0>        -0.0627
      7 C7         -0.0520    3.8496    0.0233 C.ar      1 <0>        -0.1224
      8 C8          2.4785    1.0744   -0.0164 C.2       1 <0>         0.1642
      9 N1          3.7110    1.5624   -0.0256 N.2       1 <0>        -0.4901
     10 C9          4.7573    0.7705   -0.0399 C.2       1 <0>         0.0385
     11 C10         4.5861   -0.5782   -0.0456 C.2       1 <0>        -0.1822
     12 S1          2.8009   -0.6842   -0.0217 S.3       1 <0>         0.0226
     13 C11         6.1463    1.3551   -0.0507 C.3       1 <0>         0.1909
     14 N2          6.5359    1.6630   -1.4289 N.am      1 <0>        -0.7255
     15 C12         7.7463    2.1981   -1.6835 C.2       1 <0>         0.5116
     16 O1          8.5131    2.4248   -0.7716 O.2       1 <0>        -0.5458
     17 C13         8.1471    2.5149   -3.1013 C.3       1 <0>        -0.1706
     18 H1         -2.8816    4.0466   -0.9763 H         1 <0>         0.0762
     19 H2         -3.2985    3.2600    0.5651 H         1 <0>         0.0706
     20 H3         -2.4353    4.8167    0.5652 H         1 <0>         0.0708
     21 H4         -2.1437    1.1982    0.0187 H         1 <0>         0.1322
     22 H5          0.0021   -0.0041    0.0020 H         1 <0>         0.1274
     23 H6          2.0815    3.7462    0.0020 H         1 <0>         0.1362
     24 H7         -0.0748    4.9293    0.0297 H         1 <0>         0.1320
     25 H8          5.3237   -1.3670   -0.0574 H         1 <0>         0.2028
     26 H9          6.1605    2.2687    0.5437 H         1 <0>         0.0849
     27 H10         6.8467    0.6352    0.3727 H         1 <0>         0.0857
     28 H11         5.9226    1.4817   -2.1583 H         1 <0>         0.4020
     29 H12         7.3357    2.2448   -3.7772 H         1 <0>         0.0750
     30 H13         8.3547    3.5812   -3.1906 H         1 <0>         0.0965
     31 H14         9.0408    1.9478   -3.3615 H         1 <0>         0.0964
@<TRIPOS>BOND
     1    1    2 1
     2    1   18 1
     3    1   19 1
     4    1   20 1
     5    2    7 ar
     6    2    3 ar
     7    3    4 ar
     8    3   21 1
     9    4    5 ar
    10    4   22 1
    11    5    6 ar
    12    5    8 1
    13    6    7 ar
    14    6   23 1
    15    7   24 1
    16    8   12 1
    17    8    9 2
    18    9   10 1
    19   10   11 2
    20   10   13 1
    21   11   12 1
    22   11   25 1
    23   13   14 1
    24   13   26 1
    25   13   27 1
    26   14   15 am
    27   14   28 1
    28   15   16 2
    29   15   17 1
    30   17   29 1
    31   17   30 1
    32   17   31 1
@<TRIPOS>MOLECULE
ZINC85708138
   30    31     0     0     0
SMALL
USER_CHARGES

@<TRIPOS>ATOM
      1 C1         -0.0184    1.5028    0.0103 C.3       1 <0>        -0.1335
      2 C2          0.0021   -0.0041    0.0020 C.ar      1 <0>        -0.0484
      3 C3          0.0057   -0.6859   -1.1973 C.ar      1 <0>        -0.0818
      4 C4          0.0246   -2.0812   -1.2034 C.ar      1 <0>        -0.0220
      5 C5          0.0398   -2.7786    0.0056 C.ar      1 <0>        -0.0660
      6 C6          0.0360   -2.0858    1.1982 C.ar      1 <0>        -0.0862
      7 C7          0.0229   -0.7012    1.1977 C.ar      1 <0>        -0.0684
      8 Br1         0.0262    0.2412    2.8372 Br        1 <0>        -0.0209
      9 C8          0.0281   -2.8179   -2.4853 C.2       1 <0>         0.1792
     10 N1          0.0393   -4.1253   -2.7043 N.2       1 <0>        -0.5045
     11 C9          0.0407   -4.6120   -3.9231 C.2       1 <0>        -0.0110
     12 C10         0.0305   -3.7687   -4.9894 C.2       1 <0>        -0.1805
     13 S1          0.0104   -2.1855   -4.1577 S.3       1 <0>         0.1015
     14 C11         0.0541   -6.1032   -4.1403 C.3       1 <0>         0.0768
     15 N2          1.4385   -6.5923   -4.0944 N.4       1 <0>        -0.5086
     16 C12         1.4516   -8.0459   -4.3061 C.3       1 <0>        -0.0469
     17 H1          1.0042    1.8801    0.0026 H         1 <0>         0.0868
     18 H2         -0.5455    1.8639   -0.8728 H         1 <0>         0.0787
     19 H3         -0.5286    1.8543    0.9071 H         1 <0>         0.0848
     20 H4         -0.0065   -0.1409   -2.1297 H         1 <0>         0.1375
     21 H5          0.0541   -3.8585    0.0072 H         1 <0>         0.1435
     22 H6          0.0474   -2.6243    2.1343 H         1 <0>         0.1469
     23 H7          0.0299   -3.9927   -6.0459 H         1 <0>         0.2114
     24 H8         -0.5291   -6.5895   -3.3584 H         1 <0>         0.1454
     25 H9         -0.3802   -6.3325   -5.1134 H         1 <0>         0.1463
     26 H10         1.9784   -6.1421   -4.8182 H         1 <0>         0.4285
     27 H11         0.8683   -8.5322   -3.5242 H         1 <0>         0.1254
     28 H12         1.0173   -8.2752   -5.2792 H         1 <0>         0.1252
     29 H13         2.4788   -8.4088   -4.2721 H         1 <0>         0.1279
     30 H14         1.8406   -6.3800   -3.1937 H         1 <0>         0.4332
@<TRIPOS>BOND
     1    1    2 1
     2    1   17 1
     3    1   18 1
     4    1   19 1
     5    2    7 ar
     6    2    3 ar
     7    3    4 ar
     8    3   20 1
     9    4    5 ar
    10    4    9 1
    11    5    6 ar
    12    5   21 1
    13    6    7 ar
    14    6   22 1
    15    7    8 1
    16    9   13 1
    17    9   10 2
    18   10   11 1
    19   11   12 2
    20   11   14 1
    21   12   13 1
    22   12   23 1
    23   14   15 1
    24   14   24 1
    25   14   25 1
    26   15   16 1
    27   15   26 1
    28   15   30 1
    29   16   27 1
    30   16   28 1
    31   16   29 1
@<TRIPOS>MOLECULE
ZINC40999647
   36    37     0     0     0
SMALL
USER_CHARGES

@<TRIPOS>ATOM
      1 C1          1.3526    1.9683    0.8478 C.3       1 <0>        -0.1564
      2 C2          1.1764    0.4487    0.8215 C.3       1 <0>        -0.1515
      3 C3          1.5952   -0.0896   -0.5480 C.3       1 <0>        -0.0101
      4 N1          1.4261   -1.5486   -0.5733 N.4       1 <0>        -0.5085
      5 C4          1.8282   -2.0655   -1.8883 C.3       1 <0>         0.0785
      6 C5          1.6547   -3.5622   -1.9142 C.2       1 <0>        -0.0142
      7 C6          0.5144   -4.1070   -2.4157 C.2       1 <0>        -0.1817
      8 S1          0.8570   -5.8486   -2.1971 S.3       1 <0>         0.0899
      9 C7          2.4769   -5.6614   -1.4636 C.2       1 <0>         0.1905
     10 N2          2.6062   -4.3421   -1.4577 N.2       1 <0>        -0.4993
     11 C8          3.4205   -6.6990   -0.9950 C.ar      1 <0>        -0.0485
     12 C9          2.9656   -7.7528   -0.2010 C.ar      1 <0>        -0.0786
     13 C10         3.8511   -8.7175    0.2330 C.ar      1 <0>        -0.1224
     14 C11         5.1876   -8.6420   -0.1174 C.ar      1 <0>        -0.0799
     15 C12         5.6449   -7.5998   -0.9038 C.ar      1 <0>        -0.1211
     16 C13         4.7683   -6.6318   -1.3495 C.ar      1 <0>        -0.0316
     17 C14         5.2669   -5.5009   -2.2118 C.3       1 <0>        -0.1139
     18 H1          2.3980    2.2161    0.6643 H         1 <0>         0.0676
     19 H2          0.7310    2.4196    0.0745 H         1 <0>         0.0674
     20 H3          1.0542    2.3518    1.8235 H         1 <0>         0.0776
     21 H4          1.7980   -0.0025    1.5949 H         1 <0>         0.0862
     22 H5          0.1310    0.2009    1.0051 H         1 <0>         0.0860
     23 H6          0.9736    0.3617   -1.3214 H         1 <0>         0.1329
     24 H7          2.6407    0.1582   -0.7316 H         1 <0>         0.1330
     25 H8          2.0015   -1.9663    0.1426 H         1 <0>         0.4312
     26 H9          1.2066   -1.6142   -2.6616 H         1 <0>         0.1451
     27 H10         2.8737   -1.8177   -2.0719 H         1 <0>         0.1445
     28 H11        -0.3569   -3.6223   -2.8308 H         1 <0>         0.2093
     29 H12         1.9228   -7.8127    0.0734 H         1 <0>         0.1292
     30 H13         3.5004   -9.5333    0.8478 H         1 <0>         0.1369
     31 H14         5.8768   -9.3998    0.2249 H         1 <0>         0.1355
     32 H15         6.6894   -7.5462   -1.1732 H         1 <0>         0.1361
     33 H16         5.4909   -4.6377   -1.5850 H         1 <0>         0.0792
     34 H17         6.1703   -5.8140   -2.7352 H         1 <0>         0.0733
     35 H18         4.5002   -5.2329   -2.9387 H         1 <0>         0.0618
     36 H19         0.4583   -1.7780   -0.4033 H         1 <0>         0.4260
@<TRIPOS>BOND
     1    1    2 1
     2    1   18 1
     3    1   19 1
     4    1   20 1
     5    2    3 1
     6    2   21 1
     7    2   22 1
     8    3    4 1
     9    3   23 1
    10    3   24 1
    11    4    5 1
    12    4   25 1
    13    4   36 1
    14    5    6 1
    15    5   26 1
    16    5   27 1
    17    6   10 1
    18    6    7 2
    19    7    8 1
    20    7   28 1
    21    8    9 1
    22    9   10 2
    23    9   11 1
    24   11   16 ar
    25   11   12 ar
    26   12   13 ar
    27   12   29 1
    28   13   14 ar
    29   13   30 1
    30   14   15 ar
    31   14   31 1
    32   15   16 ar
    33   15   32 1
    34   16   17 1
    35   17   33 1
    36   17   34 1
    37   17   35 1
@<TRIPOS>MOLECULE
ZINC49857636
   40    41     0     0     0
SMALL
USER_CHARGES

@<TRIPOS>ATOM
      1 C1          0.0144    1.4709    0.3843 C.3       1 <0>        -0.1554
      2 C2         -0.0032   -0.0581    0.3330 C.3       1 <0>        -0.1504
      3 C3         -1.4206   -0.5416    0.0198 C.3       1 <0>        -0.0188
      4 N1         -1.4375   -2.0097   -0.0295 N.4       1 <0>        -0.3792
      5 C4         -1.1019   -2.5480    1.2956 C.3       1 <0>        -0.0174
      6 C5         -2.0002   -1.9006    2.3514 C.3       1 <0>         0.0467
      7 O1         -3.3443   -2.3531    2.1756 O.3       1 <0>        -0.5728
      8 C6         -2.7761   -2.4712   -0.4208 C.3       1 <0>         0.0591
      9 C7         -2.7505   -3.9626   -0.6353 C.2       1 <0>        -0.0003
     10 C8         -3.1050   -4.8019    0.3739 C.2       1 <0>        -0.1713
     11 S1         -2.8912   -6.3875   -0.4253 S.3       1 <0>         0.0729
     12 C9         -2.3546   -5.7611   -2.0117 C.2       1 <0>         0.1825
     13 N2         -2.3911   -4.4533   -1.7981 N.2       1 <0>        -0.5091
     14 C10        -1.9770   -6.5021   -3.2343 C.ar      1 <0>        -0.0408
     15 C11        -1.5764   -5.8097   -4.3777 C.ar      1 <0>        -0.0651
     16 C12        -1.2254   -6.5070   -5.5153 C.ar      1 <0>        -0.1203
     17 C13        -1.2703   -7.8898   -5.5241 C.ar      1 <0>        -0.0849
     18 C14        -1.6669   -8.5822   -4.3939 C.ar      1 <0>        -0.1149
     19 C15        -2.0141   -7.8970   -3.2478 C.ar      1 <0>        -0.0852
     20 H1          1.0241    1.8154    0.6074 H         1 <0>         0.0775
     21 H2         -0.3011    1.8704   -0.5795 H         1 <0>         0.0680
     22 H3         -0.6674    1.8163    1.1615 H         1 <0>         0.0660
     23 H4          0.6785   -0.4035   -0.4442 H         1 <0>         0.0868
     24 H5          0.3123   -0.4576    1.2968 H         1 <0>         0.0842
     25 H6         -2.1024   -0.1963    0.7970 H         1 <0>         0.1338
     26 H7         -1.7361   -0.1421   -0.9440 H         1 <0>         0.1329
     27 H8         -1.2564   -3.6270    1.2992 H         1 <0>         0.1348
     28 H9         -0.0585   -2.3296    1.5229 H         1 <0>         0.1432
     29 H10        -1.6505   -2.1784    3.3457 H         1 <0>         0.0967
     30 H11        -1.9647   -0.8166    2.2435 H         1 <0>         0.0784
     31 H12        -3.9706   -1.9823    2.8123 H         1 <0>         0.4059
     32 H13        -3.4886   -2.2297    0.3679 H         1 <0>         0.1733
     33 H14        -3.0753   -1.9763   -1.3448 H         1 <0>         0.1339
     34 H15        -3.4263   -4.5742    1.3795 H         1 <0>         0.2144
     35 H16        -1.5416   -4.7302   -4.3724 H         1 <0>         0.1337
     36 H17        -0.9152   -5.9723   -6.4009 H         1 <0>         0.1358
     37 H18        -0.9949   -8.4310   -6.4172 H         1 <0>         0.1351
     38 H19        -1.7002   -9.6616   -4.4073 H         1 <0>         0.1375
     39 H20        -2.3186   -8.4389   -2.3646 H         1 <0>         0.1282
     40 H21        -0.7601   -2.3314   -0.7046 H         1 <0>         0.4247
@<TRIPOS>BOND
     1    1    2 1
     2    1   20 1
     3    1   21 1
     4    1   22 1
     5    2    3 1
     6    2   23 1
     7    2   24 1
     8    3    4 1
     9    3   25 1
    10    3   26 1
    11    4    5 1
    12    4    8 1
    13    4   40 1
    14    5    6 1
    15    5   27 1
    16    5   28 1
    17    6    7 1
    18    6   29 1
    19    6   30 1
    20    7   31 1
    21    8    9 1
    22    8   32 1
    23    8   33 1
    24    9   13 1
    25    9   10 2
    26   10   11 1
    27   10   34 1
    28   11   12 1
    29   12   13 2
    30   12   14 1
    31   14   19 ar
    32   14   15 ar
    33   15   16 ar
    34   15   35 1
    35   16   17 ar
    36   16   36 1
    37   17   18 ar
    38   17   37 1
    39   18   19 ar
    40   18   38 1
    41   19   39 1
@<TRIPOS>MOLECULE
ZINC80803429
   34    35     0     0     0
SMALL
USER_CHARGES

@<TRIPOS>ATOM
      1 C1         -0.0187    1.5258    0.0104 C.3       1 <0>        -0.1882
      2 C2          0.0021   -0.0041    0.0020 C.3       1 <0>        -0.0151
      3 N1         -1.3761   -0.5125    0.0124 N.4       1 <0>        -0.5009
      4 C3         -1.3562   -1.9814    0.0044 C.3       1 <0>         0.1166
      5 H1         -0.7538   -2.3412    0.8385 H         1 <0>         0.1508
      6 C4         -0.7522   -2.4760   -1.3115 C.3       1 <0>        -0.1798
      7 C5         -2.7634   -2.5036    0.1388 C.2       1 <0>         0.0023
      8 C6         -2.9838   -3.7395    0.6593 C.2       1 <0>        -0.1749
      9 S1         -4.7687   -3.8184    0.5781 S.3       1 <0>         0.1076
     10 C7         -5.0259   -2.2006   -0.1383 C.2       1 <0>         0.1805
     11 N2         -3.7785   -1.7631   -0.2415 N.2       1 <0>        -0.5311
     12 C8         -6.2892   -1.5296   -0.5109 C.ar      1 <0>        -0.0368
     13 C9         -6.2639   -0.2504   -1.0695 C.ar      1 <0>        -0.0455
     14 C10        -7.4438    0.3723   -1.4162 C.ar      1 <0>        -0.1341
     15 C11        -8.6571   -0.2706   -1.2104 C.ar      1 <0>         0.1567
     16 C12        -8.6872   -1.5439   -0.6547 C.ar      1 <0>        -0.0657
     17 C13        -7.5101   -2.1757   -0.3105 C.ar      1 <0>        -0.0620
     18 Cl1       -10.2071   -2.3428   -0.3991 Cl        1 <0>        -0.0299
     19 O1         -9.8180    0.3470   -1.5527 O.3       1 <0>        -0.4817
     20 H2          1.0039    1.9031    0.0027 H         1 <0>         0.1076
     21 H3         -0.5459    1.8868   -0.8726 H         1 <0>         0.0809
     22 H4         -0.5289    1.8773    0.9072 H         1 <0>         0.0805
     23 H5          0.5123   -0.3556   -0.8948 H         1 <0>         0.1329
     24 H6          0.5293   -0.3651    0.8851 H         1 <0>         0.1314
     25 H7         -1.8484   -0.1871    0.8426 H         1 <0>         0.4293
     26 H8         -0.7374   -3.5659   -1.3175 H         1 <0>         0.1067
     27 H9         -1.3545   -2.1162   -2.1457 H         1 <0>         0.0841
     28 H10         0.2656   -2.0983   -1.4087 H         1 <0>         0.0895
     29 H11        -2.2769   -4.4714    1.0212 H         1 <0>         0.2111
     30 H12        -5.3208    0.2510   -1.2294 H         1 <0>         0.1429
     31 H13        -7.4244    1.3619   -1.8483 H         1 <0>         0.1527
     32 H14        -7.5335   -3.1672    0.1172 H         1 <0>         0.1438
     33 H15       -10.1038    0.1723   -2.4598 H         1 <0>         0.4056
     34 H16        -1.8641   -0.1783   -0.8050 H         1 <0>         0.4323
@<TRIPOS>BOND
     1    1    2 1
     2    1   20 1
     3    1   21 1
     4    1   22 1
     5    2    3 1
     6    2   23 1
     7    2   24 1
     8    3    4 1
     9    3   25 1
    10    3   34 1
    11    4    5 1
    12    4    6 1
    13    4    7 1
    14    6   26 1
    15    6   27 1
    16    6   28 1
    17    7   11 1
    18    7    8 2
    19    8    9 1
    20    8   29 1
    21    9   10 1
    22   10   11 2
    23   10   12 1
    24   12   17 ar
    25   12   13 ar
    26   13   14 ar
    27   13   30 1
    28   14   15 ar
    29   14   31 1
    30   15   16 ar
    31   15   19 1
    32   16   17 ar
    33   16   18 1
    34   17   32 1
    35   19   33 1
@<TRIPOS>MOLECULE
ZINC80803427
   34    35     0     0     0
SMALL
USER_CHARGES

@<TRIPOS>ATOM
      1 C1         -0.0187    1.5258    0.0104 C.3       1 <0>        -0.1881
      2 C2          0.0021   -0.0041    0.0020 C.3       1 <0>        -0.0152
      3 N1         -1.3761   -0.5125    0.0124 N.4       1 <0>        -0.5008
      4 C3         -1.3562   -1.9814    0.0044 C.3       1 <0>         0.1167
      5 H1         -0.7699   -2.3321   -0.8450 H         1 <0>         0.1509
      6 C4         -0.7272   -2.4900    1.3031 C.3       1 <0>        -0.1800
      7 C5         -2.7657   -2.5023   -0.1088 C.2       1 <0>         0.0021
      8 C6         -2.9954   -3.7367   -0.6287 C.2       1 <0>        -0.1748
      9 S1         -4.7787   -3.8151   -0.5179 S.3       1 <0>         0.1075
     10 C7         -5.0232   -2.1991    0.2071 C.2       1 <0>         0.1804
     11 N2         -3.7733   -1.7664    0.2997 N.2       1 <0>        -0.5311
     12 C8         -6.2799   -1.5281    0.6014 C.ar      1 <0>        -0.0367
     13 C9         -6.2455   -0.2454    1.1514 C.ar      1 <0>        -0.0456
     14 C10        -7.4193    0.3777    1.5176 C.ar      1 <0>        -0.1341
     15 C11        -8.6354   -0.2687    1.3406 C.ar      1 <0>         0.1566
     16 C12        -8.6744   -1.5454    0.7935 C.ar      1 <0>        -0.0657
     17 C13        -7.5043   -2.1730    0.4193 C.ar      1 <0>        -0.0620
     18 Cl1       -10.1976   -2.3490    0.5750 Cl        1 <0>        -0.0299
     19 O1         -9.7901    0.3486    1.7037 O.3       1 <0>        -0.4815
     20 H2          1.0039    1.9031    0.0027 H         1 <0>         0.1076
     21 H3         -0.5459    1.8868   -0.8726 H         1 <0>         0.0803
     22 H4         -0.5289    1.8773    0.9072 H         1 <0>         0.0809
     23 H5          0.5123   -0.3556   -0.8948 H         1 <0>         0.1314
     24 H6          0.5293   -0.3651    0.8851 H         1 <0>         0.1329
     25 H7         -1.8484   -0.1871    0.8426 H         1 <0>         0.4324
     26 H8          0.2923   -2.1133    1.3849 H         1 <0>         0.0896
     27 H9         -1.3135   -2.1393    2.1524 H         1 <0>         0.0843
     28 H10        -0.7124   -3.5799    1.2971 H         1 <0>         0.1067
     29 H11        -2.2951   -4.4677   -1.0050 H         1 <0>         0.2111
     30 H12        -5.3002    0.2581    1.2902 H         1 <0>         0.1428
     31 H13        -7.3930    1.3700    1.9431 H         1 <0>         0.1527
     32 H14        -7.5352   -3.1635   -0.0100 H         1 <0>         0.1438
     33 H15       -10.1921    0.8763    1.0000 H         1 <0>         0.4054
     34 H16        -1.8641   -0.1783   -0.8050 H         1 <0>         0.4291
@<TRIPOS>BOND
     1    1    2 1
     2    1   20 1
     3    1   21 1
     4    1   22 1
     5    2    3 1
     6    2   23 1
     7    2   24 1
     8    3    4 1
     9    3   25 1
    10    3   34 1
    11    4    5 1
    12    4    6 1
    13    4    7 1
    14    6   26 1
    15    6   27 1
    16    6   28 1
    17    7   11 1
    18    7    8 2
    19    8    9 1
    20    8   29 1
    21    9   10 1
    22   10   11 2
    23   10   12 1
    24   12   17 ar
    25   12   13 ar
    26   13   14 ar
    27   13   30 1
    28   14   15 ar
    29   14   31 1
    30   15   16 ar
    31   15   19 1
    32   16   17 ar
    33   16   18 1
    34   17   32 1
    35   19   33 1
@<TRIPOS>MOLECULE
ZINC52903517
   30    31     0     0     0
SMALL
USER_CHARGES

@<TRIPOS>ATOM
      1 C1         -0.0187    1.5258    0.0104 C.3       1 <0>        -0.1898
      2 C2          0.0021   -0.0041    0.0020 C.3       1 <0>        -0.0095
      3 N1          0.6897   -0.4778   -1.2066 N.4       1 <0>        -0.5089
      4 C3          0.7096   -1.9467   -1.2147 C.3       1 <0>         0.0778
      5 C4          1.4150   -2.4327   -2.4546 C.2       1 <0>        -0.0152
      6 C5          2.7372   -2.7434   -2.4077 C.2       1 <0>        -0.2010
      7 S1          3.0194   -3.2419   -4.1020 S.3       1 <0>         0.1460
      8 C6          1.3496   -2.9827   -4.6863 C.2       1 <0>         0.1522
      9 N2          0.7519   -2.5617   -3.5802 N.2       1 <0>        -0.4885
     10 C7          0.7860   -3.1878   -6.0372 C.ar      1 <0>        -0.0619
     11 C8         -0.5623   -2.9148   -6.2845 C.ar      1 <0>         0.1634
     12 C9         -1.0817   -3.1086   -7.5505 C.ar      1 <0>        -0.1469
     13 C10        -0.2703   -3.5715   -8.5708 C.ar      1 <0>        -0.0448
     14 C11         1.0648   -3.8435   -8.3327 C.ar      1 <0>        -0.1117
     15 C12         1.5992   -3.6496   -7.0740 C.ar      1 <0>         0.0050
     16 Cl1         3.2769   -3.9852   -6.7800 Cl        1 <0>        -0.0150
     17 F1         -1.3558   -2.4631   -5.2887 F         1 <0>        -0.1108
     18 H1          1.0039    1.9031    0.0027 H         1 <0>         0.0802
     19 H2         -0.5459    1.8868   -0.8726 H         1 <0>         0.0806
     20 H3         -0.5289    1.8773    0.9072 H         1 <0>         0.1080
     21 H4          0.5293   -0.3651    0.8851 H         1 <0>         0.1322
     22 H5         -1.0205   -0.3814    0.0098 H         1 <0>         0.1324
     23 H6          0.2017   -0.1436   -2.0240 H         1 <0>         0.4310
     24 H7          1.2368   -2.3077   -0.3316 H         1 <0>         0.1452
     25 H8         -0.3130   -2.3239   -1.2069 H         1 <0>         0.1442
     26 H9          3.4266   -2.7008   -1.5775 H         1 <0>         0.2079
     27 H10        -2.1233   -2.8986   -7.7435 H         1 <0>         0.1572
     28 H11        -0.6815   -3.7215   -9.5581 H         1 <0>         0.1583
     29 H12         1.6919   -4.2050   -9.1342 H         1 <0>         0.1569
     30 H13         1.6363   -0.1286   -1.2138 H         1 <0>         0.4255
@<TRIPOS>BOND
     1    1    2 1
     2    1   18 1
     3    1   19 1
     4    1   20 1
     5    2    3 1
     6    2   21 1
     7    2   22 1
     8    3    4 1
     9    3   23 1
    10    3   30 1
    11    4    5 1
    12    4   24 1
    13    4   25 1
    14    5    9 1
    15    5    6 2
    16    6    7 1
    17    6   26 1
    18    7    8 1
    19    8    9 2
    20    8   10 1
    21   10   15 ar
    22   10   11 ar
    23   11   12 ar
    24   11   17 1
    25   12   13 ar
    26   12   27 1
    27   13   14 ar
    28   13   28 1
    29   14   15 ar
    30   14   29 1
    31   15   16 1
@<TRIPOS>MOLECULE
ZINC40429822
   36    37     0     0     0
SMALL
USER_CHARGES

@<TRIPOS>ATOM
      1 C1         -0.0187    1.5258    0.0104 C.3       1 <0>        -0.1844
      2 C2          0.0021   -0.0041    0.0020 C.3       1 <0>         0.0244
      3 C3          0.7421   -0.5109    1.2415 C.3       1 <0>        -0.1857
      4 N1         -1.3761   -0.5125    0.0124 N.4       1 <0>        -0.5068
      5 C4         -1.3591   -1.9758   -0.1163 C.3       1 <0>         0.0738
      6 C5         -2.7729   -2.4974   -0.1056 C.2       1 <0>        -0.0100
      7 C6         -3.4213   -2.7316   -1.2775 C.2       1 <0>        -0.1766
      8 S1         -4.9988   -3.3161   -0.6707 S.3       1 <0>         0.1101
      9 C7         -4.6235   -3.1850    1.0726 C.2       1 <0>         0.1679
     10 N2         -3.3785   -2.7314    1.0348 N.2       1 <0>        -0.4984
     11 C8         -5.4716   -3.5024    2.2416 C.ar      1 <0>        -0.0059
     12 C9         -4.9795   -3.3197    3.5345 C.ar      1 <0>        -0.0666
     13 C10        -5.7759   -3.6178    4.6210 C.ar      1 <0>        -0.0686
     14 C11        -7.0597   -4.0972    4.4307 C.ar      1 <0>        -0.1513
     15 C12        -7.5534   -4.2810    3.1514 C.ar      1 <0>        -0.0637
     16 C13        -6.7696   -3.9804    2.0565 C.ar      1 <0>        -0.0869
     17 C14        -7.9238   -4.4212    5.6221 C.3       1 <0>         0.5058
     18 F1         -8.6528   -3.2858    5.9919 F         1 <0>        -0.1705
     19 F2         -8.8065   -5.4547    5.2906 F         1 <0>        -0.1711
     20 F3         -7.1143   -4.8237    6.6897 F         1 <0>        -0.1717
     21 H1          1.0039    1.9031    0.0027 H         1 <0>         0.1081
     22 H2         -0.5459    1.8868   -0.8726 H         1 <0>         0.0816
     23 H3         -0.5289    1.8773    0.9072 H         1 <0>         0.0815
     24 H4          0.5123   -0.3556   -0.8948 H         1 <0>         0.1406
     25 H5          0.7568   -1.6008    1.2356 H         1 <0>         0.0818
     26 H6          1.7647   -0.1336    1.2338 H         1 <0>         0.1070
     27 H7          0.2319   -0.1594    2.1383 H         1 <0>         0.0826
     28 H8         -1.8225   -0.2564    0.8803 H         1 <0>         0.4291
     29 H9         -0.8769   -2.2525   -1.0538 H         1 <0>         0.1463
     30 H10        -0.8062   -2.4075    0.7180 H         1 <0>         0.1470
     31 H11        -3.0787   -2.6006   -2.2933 H         1 <0>         0.2124
     32 H12        -3.9773   -2.9462    3.6844 H         1 <0>         0.1475
     33 H13        -5.3962   -3.4769    5.6222 H         1 <0>         0.1504
     34 H14        -8.5562   -4.6559    3.0095 H         1 <0>         0.1521
     35 H15        -7.1579   -4.1194    1.0584 H         1 <0>         0.1416
     36 H16        -1.8879   -0.1129   -0.7598 H         1 <0>         0.4262
@<TRIPOS>BOND
     1    1    2 1
     2    1   21 1
     3    1   22 1
     4    1   23 1
     5    2    3 1
     6    2    4 1
     7    2   24 1
     8    3   25 1
     9    3   26 1
    10    3   27 1
    11    4    5 1
    12    4   28 1
    13    4   36 1
    14    5    6 1
    15    5   29 1
    16    5   30 1
    17    6   10 1
    18    6    7 2
    19    7    8 1
    20    7   31 1
    21    8    9 1
    22    9   10 2
    23    9   11 1
    24   11   16 ar
    25   11   12 ar
    26   12   13 ar
    27   12   32 1
    28   13   14 ar
    29   13   33 1
    30   14   15 ar
    31   14   17 1
    32   15   16 ar
    33   15   34 1
    34   16   35 1
    35   17   18 1
    36   17   19 1
    37   17   20 1
@<TRIPOS>MOLECULE
ZINC69434116
   37    38     0     0     0
SMALL
USER_CHARGES

@<TRIPOS>ATOM
      1 C1         -0.0225    1.8097    0.0120 C.3       1 <0>        -0.1206
      2 S1          0.0021   -0.0041    0.0020 S.3       1 <0>        -0.2468
      3 C2         -1.7518   -0.4668    0.0163 C.3       1 <0>        -0.0964
      4 C3         -1.8771   -1.9917    0.0093 C.3       1 <0>        -0.1328
      5 C4         -3.3564   -2.3820    0.0213 C.3       1 <0>        -0.0040
      6 N1         -3.4766   -3.8460    0.0146 N.4       1 <0>        -0.5076
      7 C5         -4.8969   -4.2208    0.0261 C.3       1 <0>         0.0786
      8 C6         -5.0203   -5.7227    0.0193 C.2       1 <0>        -0.0093
      9 C7         -5.1721   -6.3987    1.1887 C.2       1 <0>        -0.1814
     10 S2         -5.2623   -8.0809    0.5883 S.3       1 <0>         0.0980
     11 C8         -5.0883   -7.7012   -1.1502 C.2       1 <0>         0.1844
     12 N2         -4.9867   -6.3798   -1.1165 N.2       1 <0>        -0.5079
     13 C9         -5.0687   -8.6145   -2.3127 C.ar      1 <0>        -0.0552
     14 C10        -4.9143   -8.1034   -3.6022 C.ar      1 <0>        -0.0329
     15 C11        -4.8967   -8.9597   -4.6832 C.ar      1 <0>        -0.1555
     16 C12        -5.0324  -10.3254   -4.4907 C.ar      1 <0>         0.1394
     17 C13        -5.1860  -10.8381   -3.2124 C.ar      1 <0>        -0.1500
     18 C14        -5.1987   -9.9912   -2.1240 C.ar      1 <0>        -0.0532
     19 F1         -5.0154  -11.1598   -5.5531 F         1 <0>        -0.1239
     20 H1          1.0001    2.1870    0.0043 H         1 <0>         0.1108
     21 H2         -0.5497    2.1708   -0.8711 H         1 <0>         0.0821
     22 H3         -0.5327    2.1613    0.9088 H         1 <0>         0.0820
     23 H4         -2.2257   -0.0675    0.9130 H         1 <0>         0.0922
     24 H5         -2.2427   -0.0579   -0.8669 H         1 <0>         0.0923
     25 H6         -1.4032   -2.3910   -0.8874 H         1 <0>         0.0977
     26 H7         -1.3862   -2.4006    0.8924 H         1 <0>         0.0976
     27 H8         -3.8302   -1.9826    0.9180 H         1 <0>         0.1359
     28 H9         -3.8472   -1.9731   -0.8618 H         1 <0>         0.1360
     29 H10        -3.0380   -4.2157   -0.8155 H         1 <0>         0.4325
     30 H11        -5.3708   -3.8214    0.9229 H         1 <0>         0.1466
     31 H12        -5.3878   -3.8119   -0.8570 H         1 <0>         0.1459
     32 H13        -5.2237   -6.0237    2.2003 H         1 <0>         0.2109
     33 H14        -4.8092   -7.0392   -3.7533 H         1 <0>         0.1454
     34 H15        -4.7773   -8.5652   -5.6814 H         1 <0>         0.1502
     35 H16        -5.2913  -11.9032   -3.0679 H         1 <0>         0.1520
     36 H17        -5.3135  -10.3922   -1.1278 H         1 <0>         0.1394
     37 H18        -3.0222   -4.2246    0.8321 H         1 <0>         0.4276
@<TRIPOS>BOND
     1    1    2 1
     2    1   20 1
     3    1   21 1
     4    1   22 1
     5    2    3 1
     6    3    4 1
     7    3   23 1
     8    3   24 1
     9    4    5 1
    10    4   25 1
    11    4   26 1
    12    5    6 1
    13    5   27 1
    14    5   28 1
    15    6    7 1
    16    6   29 1
    17    6   37 1
    18    7    8 1
    19    7   30 1
    20    7   31 1
    21    8   12 1
    22    8    9 2
    23    9   10 1
    24    9   32 1
    25   10   11 1
    26   11   12 2
    27   11   13 1
    28   13   18 ar
    29   13   14 ar
    30   14   15 ar
    31   14   33 1
    32   15   16 ar
    33   15   34 1
    34   16   17 ar
    35   16   19 1
    36   17   18 ar
    37   17   35 1
    38   18   36 1
@<TRIPOS>MOLECULE
ZINC36827748
   37    38     0     0     0
SMALL
USER_CHARGES

@<TRIPOS>ATOM
      1 C1         -0.0187    1.5258    0.0104 C.3       1 <0>        -0.1575
      2 C2          0.0021   -0.0041    0.0020 C.3       1 <0>         0.0608
      3 O1          0.6932   -0.4774    1.1597 O.3       1 <0>        -0.4021
      4 C3          0.7699   -1.9016    1.2491 C.3       1 <0>         0.0278
      5 C4          1.5265   -2.2929    2.5200 C.3       1 <0>        -0.0004
      6 N1          0.7567   -1.8705    3.6978 N.4       1 <0>        -0.5071
      7 C5          1.4832   -2.2461    4.9180 C.3       1 <0>         0.0774
      8 C6          0.6935   -1.8128    6.1262 C.2       1 <0>        -0.0074
      9 C7         -0.1383   -2.6908    6.7465 C.2       1 <0>        -0.1823
     10 S1         -0.7815   -1.6634    8.0616 S.3       1 <0>         0.0951
     11 C8          0.1255   -0.1805    7.6426 C.2       1 <0>         0.1845
     12 N2          0.8120   -0.5886    6.5845 N.2       1 <0>        -0.5063
     13 C9          0.1164    1.1428    8.3020 C.ar      1 <0>        -0.0546
     14 C10         0.9059    2.1796    7.8024 C.ar      1 <0>        -0.0327
     15 C11         0.8937    3.4120    8.4213 C.ar      1 <0>        -0.1554
     16 C12         0.0998    3.6217    9.5377 C.ar      1 <0>         0.1389
     17 C13        -0.6860    2.5956   10.0379 C.ar      1 <0>        -0.1502
     18 C14        -0.6860    1.3612    9.4229 C.ar      1 <0>        -0.0535
     19 F1          0.0922    4.8306   10.1408 F         1 <0>        -0.1242
     20 H1          1.0039    1.9031    0.0027 H         1 <0>         0.0679
     21 H2         -0.5459    1.8868   -0.8726 H         1 <0>         0.0819
     22 H3         -0.5289    1.8773    0.9072 H         1 <0>         0.0644
     23 H4         -1.0205   -0.3814    0.0098 H         1 <0>         0.0578
     24 H5          0.5123   -0.3556   -0.8948 H         1 <0>         0.0616
     25 H6         -0.2368   -2.3182    1.2827 H         1 <0>         0.0744
     26 H7          1.2960   -2.2925    0.3781 H         1 <0>         0.0995
     27 H8          1.6625   -3.3741    2.5435 H         1 <0>         0.1471
     28 H9          2.5006   -1.8038    2.5281 H         1 <0>         0.1419
     29 H10         0.6308   -0.8696    3.6760 H         1 <0>         0.4382
     30 H11         1.6192   -3.3274    4.9416 H         1 <0>         0.1463
     31 H12         2.4573   -1.7571    4.9261 H         1 <0>         0.1460
     32 H13        -0.3520   -3.7228    6.5105 H         1 <0>         0.2107
     33 H14         1.5255    2.0170    6.9329 H         1 <0>         0.1458
     34 H15         1.5043    4.2150    8.0355 H         1 <0>         0.1502
     35 H16        -1.3029    2.7643   10.9082 H         1 <0>         0.1517
     36 H17        -1.3025    0.5636    9.8105 H         1 <0>         0.1393
     37 H18        -0.1450   -2.3232    3.6903 H         1 <0>         0.4245
@<TRIPOS>BOND
     1    1    2 1
     2    1   20 1
     3    1   21 1
     4    1   22 1
     5    2    3 1
     6    2   23 1
     7    2   24 1
     8    3    4 1
     9    4    5 1
    10    4   25 1
    11    4   26 1
    12    5    6 1
    13    5   27 1
    14    5   28 1
    15    6    7 1
    16    6   29 1
    17    6   37 1
    18    7    8 1
    19    7   30 1
    20    7   31 1
    21    8   12 1
    22    8    9 2
    23    9   10 1
    24    9   32 1
    25   10   11 1
    26   11   12 2
    27   11   13 1
    28   13   18 ar
    29   13   14 ar
    30   14   15 ar
    31   14   33 1
    32   15   16 ar
    33   15   34 1
    34   16   17 ar
    35   16   19 1
    36   17   18 ar
    37   17   35 1
    38   18   36 1
@<TRIPOS>MOLECULE
ZINC70840891
   30    31     0     0     0
SMALL
USER_CHARGES

@<TRIPOS>ATOM
      1 C1         -0.0187    1.5258    0.0104 C.3       1 <0>        -0.1802
      2 C2          0.0021   -0.0041    0.0020 C.3       1 <0>         0.1154
      3 H1          0.5293   -0.3651    0.8851 H         1 <0>         0.1509
      4 C3         -1.4117   -0.5257    0.0127 C.2       1 <0>         0.0023
      5 C4         -2.0765   -0.6666    1.1900 C.2       1 <0>        -0.1772
      6 S1         -3.6459   -1.2976    0.6093 S.3       1 <0>         0.1036
      7 C5         -3.2464   -1.3049   -1.1334 C.2       1 <0>         0.1838
      8 N1         -2.0051   -0.8396   -1.1152 N.2       1 <0>        -0.5349
      9 C6         -4.0782   -1.7143   -2.2851 C.ar      1 <0>        -0.0529
     10 C7         -3.5631   -1.6459   -3.5804 C.ar      1 <0>        -0.0360
     11 C8         -4.3432   -2.0289   -4.6512 C.ar      1 <0>        -0.1555
     12 C9         -5.6367   -2.4808   -4.4428 C.ar      1 <0>         0.1389
     13 C10        -6.1531   -2.5507   -3.1587 C.ar      1 <0>        -0.1485
     14 C11        -5.3792   -2.1759   -2.0803 C.ar      1 <0>        -0.0529
     15 F1         -6.3971   -2.8540   -5.4953 F         1 <0>        -0.1237
     16 N2          0.6897   -0.4778   -1.2066 N.4       1 <0>        -0.5006
     17 C12         2.1002   -0.0703   -1.1590 C.3       1 <0>        -0.0522
     18 H2          1.0039    1.9031    0.0027 H         1 <0>         0.0900
     19 H3         -0.5459    1.8868   -0.8726 H         1 <0>         0.0840
     20 H4         -0.5289    1.8773    0.9072 H         1 <0>         0.1064
     21 H5         -1.7478   -0.4561    2.1970 H         1 <0>         0.2103
     22 H6         -2.5555   -1.2932   -3.7440 H         1 <0>         0.1420
     23 H7         -3.9456   -1.9764   -5.6540 H         1 <0>         0.1498
     24 H8         -7.1617   -2.9035   -3.0017 H         1 <0>         0.1523
     25 H9         -5.7809   -2.2354   -1.0795 H         1 <0>         0.1401
     26 H10         0.6317   -1.4840   -1.2540 H         1 <0>         0.4316
     27 H11         2.1628    1.0167   -1.1079 H         1 <0>         0.1256
     28 H12         2.5740   -0.5034   -0.2781 H         1 <0>         0.1244
     29 H13         2.6104   -0.4218   -2.0558 H         1 <0>         0.1286
     30 H14         0.2511   -0.0769   -2.0221 H         1 <0>         0.4345
@<TRIPOS>BOND
     1    1    2 1
     2    1   18 1
     3    1   19 1
     4    1   20 1
     5    2    3 1
     6    2    4 1
     7    2   16 1
     8    4    8 1
     9    4    5 2
    10    5    6 1
    11    5   21 1
    12    6    7 1
    13    7    8 2
    14    7    9 1
    15    9   14 ar
    16    9   10 ar
    17   10   11 ar
    18   10   22 1
    19   11   12 ar
    20   11   23 1
    21   12   13 ar
    22   12   15 1
    23   13   14 ar
    24   13   24 1
    25   14   25 1
    26   16   17 1
    27   16   26 1
    28   16   30 1
    29   17   27 1
    30   17   28 1
    31   17   29 1
@<TRIPOS>MOLECULE
ZINC70840898
   30    31     0     0     0
SMALL
USER_CHARGES

@<TRIPOS>ATOM
      1 C1         -0.0187    1.5258    0.0104 C.3       1 <0>        -0.1801
      2 C2          0.0021   -0.0041    0.0020 C.3       1 <0>         0.1154
      3 H1          0.5293   -0.3651    0.8851 H         1 <0>         0.1508
      4 C3          0.7074   -0.4901   -1.2379 C.2       1 <0>         0.0024
      5 C4          2.0617   -0.6068   -1.2491 C.2       1 <0>        -0.1772
      6 S1          2.3277   -1.2034   -2.9140 S.3       1 <0>         0.1034
      7 C5          0.6107   -1.2321   -3.4120 C.2       1 <0>         0.1840
      8 N1          0.0147   -0.8065   -2.3069 N.2       1 <0>        -0.5350
      9 C6          0.0154   -1.6290   -4.7058 C.ar      1 <0>        -0.0530
     10 C7         -1.3670   -1.5700   -4.8881 C.ar      1 <0>        -0.0359
     11 C8         -1.9171   -1.9414   -6.0970 C.ar      1 <0>        -0.1556
     12 C9         -1.0998   -2.3730   -7.1297 C.ar      1 <0>         0.1390
     13 C10         0.2736   -2.4334   -6.9539 C.ar      1 <0>        -0.1485
     14 C11         0.8345   -2.0584   -5.7511 C.ar      1 <0>        -0.0529
     15 F1         -1.6438   -2.7365   -8.3117 F         1 <0>        -0.1237
     16 N2         -1.3761   -0.5125    0.0124 N.4       1 <0>        -0.5006
     17 C12        -2.0260   -0.1396    1.2760 C.3       1 <0>        -0.0522
     18 H2          1.0039    1.9031    0.0027 H         1 <0>         0.1064
     19 H3         -0.5459    1.8868   -0.8726 H         1 <0>         0.0840
     20 H4         -0.5289    1.8773    0.9072 H         1 <0>         0.0900
     21 H5          2.7784   -0.3970   -0.4689 H         1 <0>         0.2103
     22 H6         -2.0049   -1.2346   -4.0838 H         1 <0>         0.1420
     23 H7         -2.9868   -1.8962   -6.2391 H         1 <0>         0.1498
     24 H8          0.9061   -2.7704   -7.7619 H         1 <0>         0.1523
     25 H9          1.9053   -2.1012   -5.6168 H         1 <0>         0.1401
     26 H10        -1.8879   -0.1129   -0.7598 H         1 <0>         0.4344
     27 H11        -1.4732   -0.5714    2.1102 H         1 <0>         0.1244
     28 H12        -2.0386    0.9461    1.3715 H         1 <0>         0.1256
     29 H13        -3.0486   -0.5169    1.2837 H         1 <0>         0.1286
     30 H14        -1.3644   -1.5176   -0.0760 H         1 <0>         0.4316
@<TRIPOS>BOND
     1    1    2 1
     2    1   18 1
     3    1   19 1
     4    1   20 1
     5    2    3 1
     6    2    4 1
     7    2   16 1
     8    4    8 1
     9    4    5 2
    10    5    6 1
    11    5   21 1
    12    6    7 1
    13    7    8 2
    14    7    9 1
    15    9   14 ar
    16    9   10 ar
    17   10   11 ar
    18   10   22 1
    19   11   12 ar
    20   11   23 1
    21   12   13 ar
    22   12   15 1
    23   13   14 ar
    24   13   24 1
    25   14   25 1
    26   16   17 1
    27   16   26 1
    28   16   30 1
    29   17   27 1
    30   17   28 1
    31   17   29 1
@<TRIPOS>MOLECULE
ZINC54180786
   34    35     0     0     0
SMALL
USER_CHARGES

@<TRIPOS>ATOM
      1 C1         -0.0187    1.5258    0.0104 C.3       1 <0>        -0.1724
      2 C2          0.0021   -0.0041    0.0020 C.3       1 <0>        -0.0045
      3 H1          0.5293   -0.3651    0.8851 H         1 <0>         0.1366
      4 C3          0.7182   -0.4975   -1.2568 C.3       1 <0>        -0.0044
      5 N1          2.1288   -0.0900   -1.2092 N.4       1 <0>        -0.5073
      6 C4          2.8163   -0.5637   -2.4178 C.3       1 <0>         0.0782
      7 C5          4.2634   -0.1456   -2.3691 C.2       1 <0>        -0.0101
      8 C6          5.2046   -1.0047   -1.8961 C.2       1 <0>        -0.1805
      9 S1          6.6789   -0.0074   -2.0700 S.3       1 <0>         0.0992
     10 C7          5.8828    1.4411   -2.7519 C.2       1 <0>         0.1849
     11 N2          4.6176    1.0467   -2.7883 N.2       1 <0>        -0.5079
     12 C8          6.4763    2.7296   -3.1683 C.ar      1 <0>        -0.0556
     13 C9          5.6630    3.7436   -3.6763 C.ar      1 <0>        -0.0327
     14 C10         6.2217    4.9436   -4.0633 C.ar      1 <0>        -0.1557
     15 C11         7.5883    5.1433   -3.9489 C.ar      1 <0>         0.1396
     16 C12         8.4005    4.1398   -3.4451 C.ar      1 <0>        -0.1501
     17 C13         7.8512    2.9382   -3.0494 C.ar      1 <0>        -0.0531
     18 F1          8.1308    6.3204   -4.3303 F         1 <0>        -0.1239
     19 C14        -1.3789   -0.5136    0.0125 C.1       1 <0>         0.1821
     20 N3         -2.4446   -0.9068    0.0205 N.1       1 <0>        -0.3672
     21 H2          1.0039    1.9031    0.0027 H         1 <0>         0.0749
     22 H3         -0.5459    1.8868   -0.8726 H         1 <0>         0.0845
     23 H4         -0.5289    1.8773    0.9072 H         1 <0>         0.0947
     24 H5          0.6556   -1.5845   -1.3079 H         1 <0>         0.1459
     25 H6          0.2444   -0.0644   -2.1377 H         1 <0>         0.1462
     26 H7          2.1867    0.9163   -1.1619 H         1 <0>         0.4326
     27 H8          2.7537   -1.6507   -2.4690 H         1 <0>         0.1494
     28 H9          2.3425   -0.1306   -3.2988 H         1 <0>         0.1485
     29 H10         5.0930   -2.0107   -1.5193 H         1 <0>         0.2115
     30 H11         4.5979    3.5887   -3.7665 H         1 <0>         0.1458
     31 H12         5.5932    5.7290   -4.4565 H         1 <0>         0.1502
     32 H13         9.4649    4.3005   -3.3580 H         1 <0>         0.1519
     33 H14         8.4843    2.1585   -2.6524 H         1 <0>         0.1394
     34 H15         2.5674   -0.4909   -0.3938 H         1 <0>         0.4294
@<TRIPOS>BOND
     1    1    2 1
     2    1   21 1
     3    1   22 1
     4    1   23 1
     5    2    3 1
     6    2    4 1
     7    2   19 1
     8    4    5 1
     9    4   24 1
    10    4   25 1
    11    5    6 1
    12    5   26 1
    13    5   34 1
    14    6    7 1
    15    6   27 1
    16    6   28 1
    17    7   11 1
    18    7    8 2
    19    8    9 1
    20    8   29 1
    21    9   10 1
    22   10   11 2
    23   10   12 1
    24   12   17 ar
    25   12   13 ar
    26   13   14 ar
    27   13   30 1
    28   14   15 ar
    29   14   31 1
    30   15   16 ar
    31   15   18 1
    32   16   17 ar
    33   16   32 1
    34   17   33 1
    35   19   20 3
@<TRIPOS>MOLECULE
ZINC54180786
   33    34     0     0     0
SMALL
USER_CHARGES

@<TRIPOS>ATOM
      1 C1         -0.0187    1.5258    0.0104 C.3       1 <0>        -0.1506
      2 C2          0.0021   -0.0041    0.0020 C.3       1 <0>         0.0070
      3 H1          0.5293   -0.3651    0.8851 H         1 <0>         0.1251
      4 C3          0.7182   -0.4975   -1.2568 C.3       1 <0>         0.0656
      5 N1          2.1288   -0.0900   -1.2092 N.3       1 <0>        -0.6823
      6 C4          2.8495   -0.5475   -2.4047 C.3       1 <0>         0.1307
      7 C5          4.2897   -0.1119   -2.3203 C.2       1 <0>         0.0552
      8 C6          5.2306   -0.9623   -1.8312 C.2       1 <0>        -0.1723
      9 S1          6.6959    0.0543   -1.9654 S.3       1 <0>         0.0198
     10 C7          5.8975    1.4971   -2.6566 C.2       1 <0>         0.1530
     11 N2          4.6385    1.0873   -2.7242 N.2       1 <0>        -0.4923
     12 C8          6.4841    2.7954   -3.0516 C.ar      1 <0>        -0.0280
     13 C9          5.6699    3.8025   -3.5719 C.ar      1 <0>        -0.0409
     14 C10         6.2223    5.0117   -3.9388 C.ar      1 <0>        -0.1537
     15 C11         7.5834    5.2276   -3.7920 C.ar      1 <0>         0.1200
     16 C12         8.3964    4.2310   -3.2759 C.ar      1 <0>        -0.1507
     17 C13         7.8532    3.0203   -2.9001 C.ar      1 <0>        -0.0622
     18 F1          8.1196    6.4137   -4.1538 F         1 <0>        -0.1324
     19 C14        -1.3789   -0.5136    0.0125 C.1       1 <0>         0.2076
     20 N3         -2.4446   -0.9068    0.0205 N.1       1 <0>        -0.4282
     21 H2          1.0039    1.9031    0.0027 H         1 <0>         0.0782
     22 H3         -0.5459    1.8868   -0.8726 H         1 <0>         0.0636
     23 H4         -0.5289    1.8773    0.9072 H         1 <0>         0.0691
     24 H5          0.6556   -1.5845   -1.3079 H         1 <0>         0.0848
     25 H6          0.2444   -0.0644   -2.1377 H         1 <0>         0.0443
     26 H7          2.8017   -1.6349   -2.4638 H         1 <0>         0.0917
     27 H8          2.3905   -0.1148   -3.2936 H         1 <0>         0.0519
     28 H9          5.1230   -1.9719   -1.4631 H         1 <0>         0.2017
     29 H10         4.6093    3.6350   -3.6873 H         1 <0>         0.1461
     30 H11         5.5931    5.7917   -4.3415 H         1 <0>         0.1452
     31 H12         9.4564    4.4043   -3.1636 H         1 <0>         0.1458
     32 H13         8.4869    2.2460   -2.4934 H         1 <0>         0.1380
     33 H14         2.2129    0.9092   -1.0966 H         1 <0>         0.3494
@<TRIPOS>BOND
     1    1    2 1
     2    1   21 1
     3    1   22 1
     4    1   23 1
     5    2    3 1
     6    2    4 1
     7    2   19 1
     8    4    5 1
     9    4   24 1
    10    4   25 1
    11    5    6 1
    12    5   33 1
    13    6    7 1
    14    6   26 1
    15    6   27 1
    16    7   11 1
    17    7    8 2
    18    8    9 1
    19    8   28 1
    20    9   10 1
    21   10   11 2
    22   10   12 1
    23   12   17 ar
    24   12   13 ar
    25   13   14 ar
    26   13   29 1
    27   14   15 ar
    28   14   30 1
    29   15   16 ar
    30   15   18 1
    31   16   17 ar
    32   16   31 1
    33   17   32 1
    34   19   20 3
@<TRIPOS>MOLECULE
ZINC54180784
   34    35     0     0     0
SMALL
USER_CHARGES

@<TRIPOS>ATOM
      1 C1         -0.0187    1.5258    0.0104 C.3       1 <0>        -0.1719
      2 C2          0.0021   -0.0041    0.0020 C.3       1 <0>        -0.0049
      3 H1          0.5293   -0.3651    0.8851 H         1 <0>         0.1367
      4 C3         -1.4333   -0.5336    0.0129 C.3       1 <0>        -0.0043
      5 N1         -2.0833   -0.1607    1.2764 N.4       1 <0>        -0.5072
      6 C4         -3.4614   -0.6692    1.2868 C.3       1 <0>         0.0783
      7 C5         -4.1282   -0.2867    2.5830 C.2       1 <0>        -0.0099
      8 C6         -4.8919    0.8358    2.6503 C.2       1 <0>        -0.1810
      9 S1         -5.4050    0.7836    4.3628 S.3       1 <0>         0.0992
     10 C7         -4.5486   -0.7235    4.8009 C.2       1 <0>         0.1851
     11 N2         -3.9769   -1.0397    3.6474 N.2       1 <0>        -0.5078
     12 C8         -4.4965   -1.4299    6.0987 C.ar      1 <0>        -0.0557
     13 C9         -3.7534   -2.6042    6.2275 C.ar      1 <0>        -0.0326
     14 C10        -3.7082   -3.2592    7.4403 C.ar      1 <0>        -0.1557
     15 C11        -4.3993   -2.7535    8.5299 C.ar      1 <0>         0.1396
     16 C12        -5.1388   -1.5878    8.4075 C.ar      1 <0>        -0.1501
     17 C13        -5.1856   -0.9216    7.2008 C.ar      1 <0>        -0.0531
     18 F1         -4.3525   -3.3995    9.7156 F         1 <0>        -0.1239
     19 C14         0.6911   -0.4788   -1.2091 C.1       1 <0>         0.1821
     20 N3          1.2228   -0.8451   -2.1437 N.1       1 <0>        -0.3671
     21 H2          1.0039    1.9031    0.0027 H         1 <0>         0.0948
     22 H3         -0.5459    1.8868   -0.8726 H         1 <0>         0.0844
     23 H4         -0.5289    1.8773    0.9072 H         1 <0>         0.0746
     24 H5         -1.9862   -0.1019   -0.8214 H         1 <0>         0.1462
     25 H6         -1.4207   -1.6194   -0.0826 H         1 <0>         0.1460
     26 H7         -1.5715   -0.5604    2.0487 H         1 <0>         0.4343
     27 H8         -4.0143   -0.2375    0.4526 H         1 <0>         0.1491
     28 H9         -3.4489   -1.7549    1.1913 H         1 <0>         0.1487
     29 H10        -5.1242    1.5589    1.8825 H         1 <0>         0.2115
     30 H11        -3.2150   -2.9995    5.3788 H         1 <0>         0.1457
     31 H12        -3.1334   -4.1680    7.5411 H         1 <0>         0.1502
     32 H13        -5.6756   -1.1979    9.2597 H         1 <0>         0.1519
     33 H14        -5.7582   -0.0106    7.1077 H         1 <0>         0.1394
     34 H15        -2.0949    0.8443    1.3648 H         1 <0>         0.4275
@<TRIPOS>BOND
     1    1    2 1
     2    1   21 1
     3    1   22 1
     4    1   23 1
     5    2    3 1
     6    2    4 1
     7    2   19 1
     8    4    5 1
     9    4   24 1
    10    4   25 1
    11    5    6 1
    12    5   26 1
    13    5   34 1
    14    6    7 1
    15    6   27 1
    16    6   28 1
    17    7   11 1
    18    7    8 2
    19    8    9 1
    20    8   29 1
    21    9   10 1
    22   10   11 2
    23   10   12 1
    24   12   17 ar
    25   12   13 ar
    26   13   14 ar
    27   13   30 1
    28   14   15 ar
    29   14   31 1
    30   15   16 ar
    31   15   18 1
    32   16   17 ar
    33   16   32 1
    34   17   33 1
    35   19   20 3
@<TRIPOS>MOLECULE
ZINC54180784
   33    34     0     0     0
SMALL
USER_CHARGES

@<TRIPOS>ATOM
      1 C1         -0.0187    1.5258    0.0104 C.3       1 <0>        -0.1385
      2 C2          0.0021   -0.0041    0.0020 C.3       1 <0>         0.0081
      3 H1          0.5293   -0.3651    0.8851 H         1 <0>         0.1134
      4 C3         -1.4333   -0.5336    0.0129 C.3       1 <0>         0.0656
      5 N1         -2.0833   -0.1607    1.2764 N.3       1 <0>        -0.6798
      6 C4         -3.4663   -0.6537    1.3225 C.3       1 <0>         0.1312
      7 C5         -4.0992   -0.2529    2.6301 C.2       1 <0>         0.0558
      8 C6         -4.8488    0.8785    2.7051 C.2       1 <0>        -0.1725
      9 S1         -5.3232    0.8464    4.4292 S.3       1 <0>         0.0193
     10 C7         -4.4736   -0.6665    4.8607 C.2       1 <0>         0.1533
     11 N2         -3.9319   -0.9987    3.6972 N.2       1 <0>        -0.4923
     12 C8         -4.3997   -1.3625    6.1630 C.ar      1 <0>        -0.0281
     13 C9         -3.6668   -2.5440    6.2850 C.ar      1 <0>        -0.0409
     14 C10        -3.6012   -3.1893    7.5021 C.ar      1 <0>        -0.1538
     15 C11        -4.2617   -2.6668    8.6026 C.ar      1 <0>         0.1200
     16 C12        -4.9909   -1.4940    8.4870 C.ar      1 <0>        -0.1508
     17 C13        -5.0579   -0.8374    7.2760 C.ar      1 <0>        -0.0622
     18 F1         -4.1950   -3.3034    9.7924 F         1 <0>        -0.1325
     19 C14         0.6911   -0.4788   -1.2091 C.1       1 <0>         0.2066
     20 N3          1.2228   -0.8451   -2.1437 N.1       1 <0>        -0.4286
     21 H2          1.0039    1.9031    0.0027 H         1 <0>         0.0596
     22 H3         -0.5459    1.8868   -0.8726 H         1 <0>         0.0620
     23 H4         -0.5289    1.8773    0.9072 H         1 <0>         0.0877
     24 H5         -1.9862   -0.1019   -0.8214 H         1 <0>         0.0859
     25 H6         -1.4207   -1.6194   -0.0826 H         1 <0>         0.0426
     26 H7         -4.0333   -0.2228    0.4973 H         1 <0>         0.0916
     27 H8         -3.4679   -1.7403    1.2360 H         1 <0>         0.0515
     28 H9         -5.0905    1.5978    1.9366 H         1 <0>         0.2016
     29 H10        -3.1522   -2.9523    5.4277 H         1 <0>         0.1461
     30 H11        -3.0343   -4.1036    7.5975 H         1 <0>         0.1452
     31 H12        -5.5039   -1.0911    9.3478 H         1 <0>         0.1458
     32 H13        -5.6224    0.0791    7.1881 H         1 <0>         0.1380
     33 H14        -1.5538   -0.4947    2.0677 H         1 <0>         0.3491
@<TRIPOS>BOND
     1    1    2 1
     2    1   21 1
     3    1   22 1
     4    1   23 1
     5    2    3 1
     6    2    4 1
     7    2   19 1
     8    4    5 1
     9    4   24 1
    10    4   25 1
    11    5    6 1
    12    5   33 1
    13    6    7 1
    14    6   26 1
    15    6   27 1
    16    7   11 1
    17    7    8 2
    18    8    9 1
    19    8   28 1
    20    9   10 1
    21   10   11 2
    22   10   12 1
    23   12   17 ar
    24   12   13 ar
    25   13   14 ar
    26   13   29 1
    27   14   15 ar
    28   14   30 1
    29   15   16 ar
    30   15   18 1
    31   16   17 ar
    32   16   31 1
    33   17   32 1
    34   19   20 3
@<TRIPOS>MOLECULE
ZINC08235692
   43    44     0     0     0
SMALL
USER_CHARGES
3-isopropoxy-N-[(2-phenylthiazol-4-yl)methyl]propan-1-amine
@<TRIPOS>ATOM
      1 C1         -4.7421  -10.1974   -4.6021 C.3       1 <0>        -0.1785
      2 C2         -3.2556   -9.8760   -4.4352 C.3       1 <0>         0.0846
      3 C3         -2.4900  -10.3462   -5.6737 C.3       1 <0>        -0.1543
      4 O1         -3.0878   -8.4655   -4.2786 O.3       1 <0>        -0.3815
      5 C4         -3.1368   -8.0215   -2.9212 C.3       1 <0>         0.0644
      6 C5         -2.9469   -6.5041   -2.8738 C.3       1 <0>        -0.1509
      7 C6         -2.9993   -6.0287   -1.4205 C.3       1 <0>        -0.0013
      8 C7         -2.8616   -4.0786    0.0081 C.3       1 <0>         0.0827
      9 C8         -2.6714   -2.5837    0.0147 C.2       1 <0>        -0.0087
     10 C9         -3.7528   -1.7598    0.0299 C.2       1 <0>        -0.1844
     11 S1         -2.9498   -0.1617    0.0384 S.3       1 <0>         0.0922
     12 C10        -1.2664   -0.7639    0.0105 C.2       1 <0>         0.1877
     13 N1         -1.4618   -2.0750    0.0054 N.2       1 <0>        -0.5101
     14 C11         0.0021   -0.0041    0.0020 C.ar      1 <0>        -0.0446
     15 C12        -0.0168    1.3913    0.0097 C.ar      1 <0>        -0.0839
     16 C13         1.1702    2.0943    0.0021 C.ar      1 <0>        -0.1149
     17 C14         2.3776    1.4189   -0.0135 C.ar      1 <0>        -0.0826
     18 C15         2.4032    0.0356   -0.0207 C.ar      1 <0>        -0.1205
     19 C16         1.2232   -0.6793   -0.0133 C.ar      1 <0>        -0.0633
     20 H1         -4.8701  -11.2732   -4.7215 H         1 <0>         0.0724
     21 H2         -5.2875   -9.8623   -3.7198 H         1 <0>         0.0548
     22 H3         -5.1278   -9.6855   -5.4837 H         1 <0>         0.0668
     23 H4         -2.8699  -10.3878   -3.5536 H         1 <0>         0.0638
     24 H5         -1.4310  -10.1172   -5.5548 H         1 <0>         0.0630
     25 H6         -2.6180  -11.4221   -5.7931 H         1 <0>         0.0762
     26 H7         -2.8757   -9.8343   -6.5553 H         1 <0>         0.0666
     27 H8         -2.3428   -8.5050   -2.3520 H         1 <0>         0.0592
     28 H9         -4.1033   -8.2804   -2.4889 H         1 <0>         0.0587
     29 H10        -3.7408   -6.0206   -3.4431 H         1 <0>         0.0957
     30 H11        -1.9804   -6.2452   -3.3062 H         1 <0>         0.0960
     31 H12        -2.2053   -6.5122   -0.8512 H         1 <0>         0.1350
     32 H13        -3.9658   -6.2877   -0.9881 H         1 <0>         0.1348
     33 H14        -2.0667   -4.5486    0.5872 H         1 <0>         0.1447
     34 H15        -3.8271   -4.3240    0.4503 H         1 <0>         0.1454
     35 H16        -4.8050   -2.0029    0.0387 H         1 <0>         0.2100
     36 H17        -0.9587    1.9197    0.0170 H         1 <0>         0.1284
     37 H18         1.1570    3.1742    0.0077 H         1 <0>         0.1382
     38 H19         3.3041    1.9738   -0.0197 H         1 <0>         0.1359
     39 H20         3.3490   -0.4857   -0.0325 H         1 <0>         0.1365
     40 H21         1.2446   -1.7590   -0.0189 H         1 <0>         0.1343
     41 N2         -2.8155   -4.5656   -1.3835 N.4       1 <0>        -0.5168
     42 H22        -3.5638   -4.1165   -1.9244 H         1 <0>         0.4316
     43 H23        -1.9056   -4.3280   -1.7955 H         1 <0>         0.4368
@<TRIPOS>BOND
     1    1    2 1
     2    1   20 1
     3    1   21 1
     4    1   22 1
     5    2    3 1
     6    2    4 1
     7    2   23 1
     8    3   24 1
     9    3   25 1
    10    3   26 1
    11    4    5 1
    12    5    6 1
    13    5   27 1
    14    5   28 1
    15    6    7 1
    16    6   29 1
    17    6   30 1
    18    7   31 1
    19    7   32 1
    20    7   41 1
    21    8    9 1
    22    8   33 1
    23    8   34 1
    24    8   41 1
    25    9   13 1
    26    9   10 2
    27   10   11 1
    28   10   35 1
    29   11   12 1
    30   12   13 2
    31   12   14 1
    32   14   19 ar
    33   14   15 ar
    34   15   16 ar
    35   15   36 1
    36   16   17 ar
    37   16   37 1
    38   17   18 ar
    39   17   38 1
    40   18   19 ar
    41   18   39 1
    42   19   40 1
    43   41   42 1
    44   41   43 1
@<TRIPOS>MOLECULE
ZINC19702677
   27    28     0     0     0
SMALL
USER_CHARGES
methyl 2-[2-(3-chlorophenyl)thiazol-4-yl]acetate
@<TRIPOS>ATOM
      1 C1         -0.8122    5.7075   -2.4659 C.3       1 <0>         0.0336
      2 O1          0.0114    5.3183   -1.3352 O.3       1 <0>        -0.3618
      3 C2          0.2001    4.0034   -1.1428 C.2       1 <0>         0.4619
      4 O2         -0.3062    3.2040   -1.8942 O.2       1 <0>        -0.4875
      5 C3          1.0435    3.5240    0.0105 C.3       1 <0>        -0.0442
      6 C4          1.0962    2.0180    0.0024 C.2       1 <0>         0.0652
      7 C5          2.2960    1.3786   -0.0125 C.2       1 <0>        -0.1895
      8 S1          1.7604   -0.3278   -0.0165 S.3       1 <0>         0.0284
      9 C6          0.0021   -0.0041    0.0020 C.2       1 <0>         0.1557
     10 N1         -0.0159    1.3214    0.0093 N.2       1 <0>        -0.4713
     11 C7         -1.1278   -0.9580    0.0073 C.ar      1 <0>        -0.0023
     12 C8         -2.4417   -0.4878    0.0276 C.ar      1 <0>        -0.0641
     13 C9         -3.4919   -1.3823    0.0271 C.ar      1 <0>        -0.1055
     14 C10        -3.2453   -2.7437    0.0175 C.ar      1 <0>        -0.0907
     15 C11        -1.9445   -3.2172    0.0026 C.ar      1 <0>        -0.0344
     16 C12        -0.8847   -2.3317   -0.0023 C.ar      1 <0>        -0.0855
     17 Cl1        -1.6449   -4.9272   -0.0094 Cl        1 <0>        -0.0581
     18 H1         -0.8841    6.8044   -2.5068 H         1 <0>         0.1041
     19 H2         -1.8184    5.2781   -2.3516 H         1 <0>         0.0643
     20 H3         -0.3580    5.3349   -3.3959 H         1 <0>         0.0634
     21 H4          2.0623    3.9271   -0.0878 H         1 <0>         0.1251
     22 H5          0.6019    3.8704    0.9566 H         1 <0>         0.1246
     23 H6          3.2954    1.7878   -0.0203 H         1 <0>         0.2044
     24 H7         -2.6360    0.5745    0.0397 H         1 <0>         0.1425
     25 H8         -4.5090   -1.0192    0.0387 H         1 <0>         0.1427
     26 H9         -4.0710   -3.4398    0.0220 H         1 <0>         0.1409
     27 H10         0.1299   -2.7018   -0.0133 H         1 <0>         0.1380
@<TRIPOS>BOND
     1    1    2 1
     2    1   18 1
     3    1   19 1
     4    1   20 1
     5    2    3 1
     6    3    4 2
     7    3    5 1
     8    5    6 1
     9    5   21 1
    10    5   22 1
    11    6   10 1
    12    6    7 2
    13    7    8 1
    14    7   23 1
    15    8    9 1
    16    9   10 2
    17    9   11 1
    18   11   16 ar
    19   11   12 ar
    20   12   13 ar
    21   12   24 1
    22   13   14 ar
    23   13   25 1
    24   14   15 ar
    25   14   26 1
    26   15   16 ar
    27   15   17 1
    28   16   27 1
@<TRIPOS>MOLECULE
ZINC11755531
   27    28     0     0     0
SMALL
USER_CHARGES
2-[2-(2,6-dichlorophenyl)thiazol-4-yl]ethanamine
@<TRIPOS>ATOM
      1 C1          6.2682   -1.5091   -0.0660 C.ar      1 <0>        -0.0678
      2 C2          6.0553   -0.1423   -0.0566 C.ar      1 <0>        -0.0979
      3 C3          4.7688    0.3593   -0.0415 C.ar      1 <0>        -0.0132
      4 C4          3.6813   -0.5168   -0.0359 C.ar      1 <0>        -0.0090
      5 C5          3.9039   -1.8955   -0.0396 C.ar      1 <0>         0.0149
      6 C6          5.1958   -2.3829   -0.0600 C.ar      1 <0>        -0.1046
      7 Cl1         2.5596   -2.9939   -0.0248 Cl        1 <0>        -0.0323
      8 C7          2.3012    0.0126   -0.0198 C.2       1 <0>         0.1384
      9 N1          1.1487   -0.6427   -0.0124 N.2       1 <0>        -0.4814
     10 C8          0.0021   -0.0041    0.0020 C.2       1 <0>         0.0329
     11 C9         -0.0164    1.3551    0.0095 C.2       1 <0>        -0.2115
     12 S1          1.7367    1.7090   -0.0053 S.3       1 <0>         0.1118
     13 C10        -1.2919   -0.7765    0.0107 C.3       1 <0>        -0.0688
     14 C11        -1.3175   -1.7419   -1.1759 C.3       1 <0>         0.0003
     15 Cl2         4.5039    2.0750   -0.0303 Cl        1 <0>        -0.0177
     16 H1          7.2765   -1.8959   -0.0777 H         1 <0>         0.1552
     17 H2          6.8973    0.5341   -0.0606 H         1 <0>         0.1545
     18 H3          5.3694   -3.4489   -0.0674 H         1 <0>         0.1523
     19 H4         -0.8568    2.0333    0.0174 H         1 <0>         0.1997
     20 H5         -1.3721   -1.3406    0.9399 H         1 <0>         0.1000
     21 H6         -2.1294   -0.0832   -0.0668 H         1 <0>         0.1014
     22 H7         -1.2374   -1.1778   -2.1051 H         1 <0>         0.1346
     23 H8         -0.4800   -2.4352   -1.0984 H         1 <0>         0.1376
     24 H9         -3.3722   -1.8714   -1.1734 H         1 <0>         0.4364
     25 H10        -2.6201   -3.1400   -1.9421 H         1 <0>         0.4412
     26 N2         -2.5766   -2.5069   -1.1453 N.4       1 <0>        -0.6467
     27 H11        -2.6169   -3.0560   -0.2786 H         1 <0>         0.4398
@<TRIPOS>BOND
     1    1    6 ar
     2    1    2 ar
     3    1   16 1
     4    2    3 ar
     5    2   17 1
     6    3    4 ar
     7    3   15 1
     8    4    5 ar
     9    4    8 1
    10    5    6 ar
    11    5    7 1
    12    6   18 1
    13    8   12 1
    14    8    9 2
    15    9   10 1
    16   10   11 2
    17   10   13 1
    18   11   12 1
    19   11   19 1
    20   13   14 1
    21   13   20 1
    22   13   21 1
    23   14   22 1
    24   14   23 1
    25   14   26 1
    26   24   26 1
    27   25   26 1
    28   26   27 1
@<TRIPOS>MOLECULE
ZINC84149821
   33    34     0     0     0
SMALL
USER_CHARGES

@<TRIPOS>ATOM
      1 C1         -0.0187    1.5258    0.0104 C.3       1 <0>        -0.1553
      2 C2          0.0021   -0.0041    0.0020 C.3       1 <0>        -0.1140
      3 C3          0.7421   -0.5109    1.2415 C.3       1 <0>        -0.0528
      4 C4          0.7625   -2.0177    1.2333 C.2       1 <0>         0.0571
      5 C5          1.9445   -2.6832    1.3261 C.2       1 <0>        -0.1764
      6 S1          1.3745   -4.3775    1.2679 S.3       1 <0>         0.0334
      7 C6         -0.3707   -4.0153    1.1268 C.2       1 <0>         0.1084
      8 N1         -0.3609   -2.6898    1.1419 N.2       1 <0>        -0.4712
      9 C7         -1.5168   -4.9442    1.0259 C.ar      1 <0>         0.0397
     10 C8         -2.8155   -4.4454    0.9162 C.ar      1 <0>        -0.0752
     11 C9         -3.8805   -5.3174    0.8224 C.ar      1 <0>        -0.0877
     12 C10        -3.6631   -6.6837    0.8375 C.ar      1 <0>        -0.1646
     13 C11        -2.3781   -7.1846    0.9466 C.ar      1 <0>        -0.0853
     14 C12        -1.3039   -6.3233    1.0343 C.ar      1 <0>        -0.0965
     15 C13        -4.8312   -7.6303    0.7353 C.3       1 <0>         0.0474
     16 N2         -5.0928   -7.9344   -0.6779 N.4       1 <0>        -0.6373
     17 H1          1.0039    1.9031    0.0027 H         1 <0>         0.0564
     18 H2         -0.5459    1.8868   -0.8726 H         1 <0>         0.0573
     19 H3         -0.5289    1.8773    0.9072 H         1 <0>         0.0564
     20 H4         -1.0205   -0.3814    0.0098 H         1 <0>         0.0683
     21 H5          0.5123   -0.3556   -0.8948 H         1 <0>         0.0586
     22 H6          1.7647   -0.1336    1.2338 H         1 <0>         0.0832
     23 H7          0.2319   -0.1594    2.1383 H         1 <0>         0.0827
     24 H8          2.9491   -2.2961    1.4110 H         1 <0>         0.2061
     25 H9         -2.9865   -3.3791    0.9050 H         1 <0>         0.1481
     26 H10        -4.8860   -4.9327    0.7375 H         1 <0>         0.1403
     27 H11        -2.2151   -8.2522    0.9581 H         1 <0>         0.1407
     28 H12        -0.3008   -6.7155    1.1141 H         1 <0>         0.1396
     29 H13        -4.5994   -8.5523    1.2685 H         1 <0>         0.1419
     30 H14        -5.7137   -7.1674    1.1767 H         1 <0>         0.1420
     31 H15        -5.8748   -8.5683   -0.7464 H         1 <0>         0.4386
     32 H16        -5.3073   -7.0809   -1.1714 H         1 <0>         0.4353
     33 H17        -4.2758   -8.3629   -1.0865 H         1 <0>         0.4350
@<TRIPOS>BOND
     1    1    2 1
     2    1   17 1
     3    1   18 1
     4    1   19 1
     5    2    3 1
     6    2   20 1
     7    2   21 1
     8    3    4 1
     9    3   22 1
    10    3   23 1
    11    4    8 1
    12    4    5 2
    13    5    6 1
    14    5   24 1
    15    6    7 1
    16    7    8 2
    17    7    9 1
    18    9   14 ar
    19    9   10 ar
    20   10   11 ar
    21   10   25 1
    22   11   12 ar
    23   11   26 1
    24   12   13 ar
    25   12   15 1
    26   13   14 ar
    27   13   27 1
    28   14   28 1
    29   15   16 1
    30   15   29 1
    31   15   30 1
    32   16   31 1
    33   16   32 1
    34   16   33 1
@<TRIPOS>MOLECULE
ZINC00405650
   28    30     0     0     0
SMALL
USER_CHARGES
4-(4-fluorophenyl)-2-phenyl-thiazole
@<TRIPOS>ATOM
      1 C1          3.9576    5.6584   -0.0027 C.ar      1 <0>        -0.0972
      2 C2          2.5746    5.6941    0.0103 C.ar      1 <0>        -0.1178
      3 C3          1.8511    4.5194    0.0101 C.ar      1 <0>        -0.0904
      4 C4          2.5174    3.2932   -0.0039 C.ar      1 <0>        -0.0222
      5 C5          3.9125    3.2641   -0.0121 C.ar      1 <0>        -0.0687
      6 C6          4.6241    4.4461   -0.0170 C.ar      1 <0>        -0.1205
      7 C7          1.7483    2.0303   -0.0037 C.2       1 <0>         0.1657
      8 N1          2.1879    0.7820   -0.0146 N.2       1 <0>        -0.4925
      9 C8          1.3524   -0.2394   -0.0121 C.2       1 <0>         0.1023
     10 C9          0.0021   -0.0041    0.0020 C.2       1 <0>        -0.1951
     11 S1         -0.0222    1.7840    0.0119 S.3       1 <0>         0.0269
     12 C10         1.8699   -1.6298   -0.0250 C.ar      1 <0>        -0.0379
     13 C11         0.9838   -2.7054   -0.0170 C.ar      1 <0>        -0.0755
     14 C12         1.4694   -3.9969   -0.0334 C.ar      1 <0>        -0.1528
     15 C13         2.8358   -4.2252   -0.0481 C.ar      1 <0>         0.1055
     16 C14         3.7204   -3.1590   -0.0509 C.ar      1 <0>        -0.1549
     17 C15         3.2436   -1.8642   -0.0394 C.ar      1 <0>        -0.0565
     18 F1          3.3070   -5.4913   -0.0594 F         1 <0>        -0.1371
     19 H1          4.5193    6.5808   -0.0021 H         1 <0>         0.1298
     20 H2          2.0602    6.6437    0.0211 H         1 <0>         0.1326
     21 H3          0.7716    4.5486    0.0203 H         1 <0>         0.1274
     22 H4          4.4340    2.3184   -0.0188 H         1 <0>         0.1357
     23 H5          5.7039    4.4249   -0.0276 H         1 <0>         0.1323
     24 H6         -0.8198   -0.7047    0.0056 H         1 <0>         0.2026
     25 H7         -0.0815   -2.5284   -0.0017 H         1 <0>         0.1353
     26 H8          0.7834   -4.8310   -0.0313 H         1 <0>         0.1406
     27 H9          4.7848   -3.3415   -0.0617 H         1 <0>         0.1396
     28 H10         3.9339   -1.0336   -0.0412 H         1 <0>         0.1429
@<TRIPOS>BOND
     1    1    6 ar
     2    1    2 ar
     3    1   19 1
     4    2    3 ar
     5    2   20 1
     6    3    4 ar
     7    3   21 1
     8    4    5 ar
     9    4    7 1
    10    5    6 ar
    11    5   22 1
    12    6   23 1
    13    7   11 1
    14    7    8 2
    15    8    9 1
    16    9   10 2
    17    9   12 1
    18   10   11 1
    19   10   24 1
    20   12   17 ar
    21   12   13 ar
    22   13   14 ar
    23   13   25 1
    24   14   15 ar
    25   14   26 1
    26   15   16 ar
    27   15   18 1
    28   16   17 ar
    29   16   27 1
    30   17   28 1
@<TRIPOS>MOLECULE
ZINC83546637
   27    28     0     0     0
SMALL
USER_CHARGES

@<TRIPOS>ATOM
      1 C1         -0.0167    1.3793    0.0096 C.ar      1 <0>        -0.1246
      2 C2          1.1663    2.0895    0.0021 C.ar      1 <0>        -0.0089
      3 C3          2.3848    1.4101   -0.0132 C.ar      1 <0>        -0.0683
      4 C4          2.3980    0.0123   -0.0208 C.ar      1 <0>         0.1779
      5 C5          1.2054   -0.6859   -0.0132 C.ar      1 <0>        -0.2146
      6 C6          0.0021   -0.0041    0.0020 C.ar      1 <0>        -0.0127
      7 C7          1.2160   -2.1929   -0.0219 C.3       1 <0>         0.5134
      8 F1         -0.0996   -2.6685   -0.0118 F         1 <0>        -0.1656
      9 F2          1.8676   -2.6480   -1.1732 F         1 <0>        -0.1677
     10 F3          1.8899   -2.6610    1.1112 F         1 <0>        -0.1671
     11 F4          3.5732   -0.6540   -0.0361 F         1 <0>        -0.1088
     12 C8          3.6558    2.1648   -0.0217 C.2       1 <0>         0.1598
     13 N1          3.8563    3.4753   -0.0116 N.2       1 <0>        -0.4975
     14 C9          5.0683    3.9792   -0.0219 C.2       1 <0>        -0.0173
     15 C10         6.1460    3.1512   -0.0433 C.2       1 <0>        -0.1850
     16 S1          5.3369    1.5562   -0.0406 S.3       1 <0>         0.1403
     17 C11         5.2646    5.4733   -0.0105 C.3       1 <0>         0.0803
     18 N2          5.1911    5.9873   -1.3847 N.4       1 <0>        -0.6352
     19 H1         -0.9600    1.9048    0.0260 H         1 <0>         0.1591
     20 H2          1.1491    3.1693    0.0078 H         1 <0>         0.1561
     21 H3         -0.9273   -0.5542    0.0080 H         1 <0>         0.1629
     22 H4          7.1992    3.3902   -0.0544 H         1 <0>         0.2128
     23 H5          4.4848    5.9376    0.5933 H         1 <0>         0.1480
     24 H6          6.2408    5.7083    0.4136 H         1 <0>         0.1493
     25 H7          4.2874    5.7698   -1.7773 H         1 <0>         0.4381
     26 H8          5.3225    6.9877   -1.3770 H         1 <0>         0.4410
     27 H9          5.9129    5.5575   -1.9436 H         1 <0>         0.4342
@<TRIPOS>BOND
     1    1    6 ar
     2    1    2 ar
     3    1   19 1
     4    2    3 ar
     5    2   20 1
     6    3    4 ar
     7    3   12 1
     8    4    5 ar
     9    4   11 1
    10    5    6 ar
    11    5    7 1
    12    6   21 1
    13    7    8 1
    14    7    9 1
    15    7   10 1
    16   12   16 1
    17   12   13 2
    18   13   14 1
    19   14   15 2
    20   14   17 1
    21   15   16 1
    22   15   22 1
    23   17   18 1
    24   17   23 1
    25   17   24 1
    26   18   25 1
    27   18   26 1
    28   18   27 1
@<TRIPOS>MOLECULE
ZINC40999721
   34    36     0     0     0
SMALL
USER_CHARGES

@<TRIPOS>ATOM
      1 C1         -0.0184    1.5028    0.0103 C.3       1 <0>        -0.1224
      2 C2          0.0021   -0.0041    0.0020 C.ar      1 <0>        -0.1118
      3 C3          0.0057   -0.6860   -1.1970 C.ar      1 <0>        -0.0577
      4 C4          0.0246   -2.0813   -1.2032 C.ar      1 <0>        -0.0492
      5 C5          0.0398   -2.7795    0.0053 C.ar      1 <0>        -0.0403
      6 C6          0.0360   -2.0881    1.1983 C.ar      1 <0>        -0.1502
      7 C7          0.0229   -0.7020    1.1989 C.ar      1 <0>         0.1348
      8 F1          0.0253   -0.0293    2.3704 F         1 <0>        -0.1225
      9 C8          0.0281   -2.8174   -2.4854 C.2       1 <0>         0.1847
     10 N1          0.0393   -4.1247   -2.7050 N.2       1 <0>        -0.5076
     11 C9          0.0402   -4.6108   -3.9242 C.2       1 <0>        -0.0093
     12 C10         0.0296   -3.7671   -4.9899 C.2       1 <0>        -0.1812
     13 S1          0.0104   -2.1843   -4.1575 S.3       1 <0>         0.0964
     14 C11         0.0536   -6.1019   -4.1422 C.3       1 <0>         0.0831
     15 N2          1.4381   -6.5910   -4.0971 N.4       1 <0>        -0.4783
     16 C12         1.4511   -8.0445   -4.3096 C.3       1 <0>        -0.0841
     17 C13         1.9569   -8.9217   -3.1626 C.3       1 <0>        -0.1534
     18 C14         2.8144   -8.7308   -4.4152 C.3       1 <0>        -0.1540
     19 H1          1.0042    1.8801    0.0026 H         1 <0>         0.0829
     20 H2         -0.5455    1.8639   -0.8728 H         1 <0>         0.0787
     21 H3         -0.5286    1.8543    0.9071 H         1 <0>         0.0788
     22 H4         -0.0065   -0.1409   -2.1293 H         1 <0>         0.1388
     23 H5          0.0541   -3.8594    0.0060 H         1 <0>         0.1449
     24 H6          0.0478   -2.6274    2.1340 H         1 <0>         0.1504
     25 H7          0.0287   -3.9907   -6.0465 H         1 <0>         0.2111
     26 H8         -0.5294   -6.5887   -3.3603 H         1 <0>         0.1455
     27 H9         -0.3811   -6.3308   -5.1153 H         1 <0>         0.1461
     28 H10         1.9777   -6.1404   -4.8209 H         1 <0>         0.4267
     29 H11         0.6410   -8.4370   -4.9243 H         1 <0>         0.1794
     30 H12         2.2800   -8.4202   -2.2503 H         1 <0>         0.1211
     31 H13         1.4795   -9.8915   -3.0224 H         1 <0>         0.1345
     32 H14         2.9012   -9.5751   -5.0992 H         1 <0>         0.1349
     33 H15         3.7017   -8.1039   -4.3271 H         1 <0>         0.1204
     34 H16         1.8404   -6.3792   -3.1964 H         1 <0>         0.4286
@<TRIPOS>BOND
     1    1    2 1
     2    1   19 1
     3    1   20 1
     4    1   21 1
     5    2    7 ar
     6    2    3 ar
     7    3    4 ar
     8    3   22 1
     9    4    5 ar
    10    4    9 1
    11    5    6 ar
    12    5   23 1
    13    6    7 ar
    14    6   24 1
    15    7    8 1
    16    9   13 1
    17    9   10 2
    18   10   11 1
    19   11   12 2
    20   11   14 1
    21   12   13 1
    22   12   25 1
    23   14   15 1
    24   14   26 1
    25   14   27 1
    26   15   16 1
    27   15   28 1
    28   15   34 1
    29   16   18 1
    30   16   17 1
    31   16   29 1
    32   17   18 1
    33   17   30 1
    34   17   31 1
    35   18   32 1
    36   18   33 1
@<TRIPOS>MOLECULE
ZINC62938337
   34    36     0     0     0
SMALL
USER_CHARGES

@<TRIPOS>ATOM
      1 C1         -0.0167    1.3791    0.0096 C.ar      1 <0>        -0.0900
      2 C2          1.1675    2.0879    0.0021 C.ar      1 <0>        -0.0880
      3 C3          2.3837    1.4075   -0.0132 C.ar      1 <0>         0.0259
      4 C4          2.3966    0.0139   -0.0208 C.ar      1 <0>        -0.1074
      5 C5          1.2063   -0.6846   -0.0132 C.ar      1 <0>        -0.0875
      6 C6          0.0021   -0.0041    0.0020 C.ar      1 <0>        -0.1746
      7 C7         -1.2943   -0.7724    0.0108 C.3       1 <0>         0.0485
      8 N1         -1.7293   -1.0147   -1.3713 N.4       1 <0>        -0.6373
      9 C8          3.6598    2.1639   -0.0218 C.2       1 <0>         0.0748
     10 C9          4.8579    1.4985   -0.0420 C.2       1 <0>        -0.1933
     11 S1          6.0005    2.8741   -0.0443 S.3       1 <0>         0.0993
     12 C10         4.7784    4.1783   -0.0183 C.2       1 <0>         0.1506
     13 N2          3.6518    3.4838   -0.0155 N.2       1 <0>        -0.4872
     14 C11         4.9741    5.6436   -0.0078 C.ar      1 <0>        -0.0443
     15 C12         3.8710    6.4979    0.0191 C.ar      1 <0>        -0.0353
     16 C13         4.0604    7.8652    0.0288 C.ar      1 <0>        -0.0489
     17 C14         5.3419    8.3905    0.0118 C.ar      1 <0>        -0.0559
     18 C15         6.4398    7.5507   -0.0154 C.ar      1 <0>        -0.1330
     19 C16         6.2646    6.1794   -0.0190 C.ar      1 <0>         0.1303
     20 F1          7.3382    5.3595   -0.0389 F         1 <0>        -0.1186
     21 Cl1         2.6890    8.9291    0.0617 Cl        1 <0>        -0.0433
     22 H1         -0.9597    1.9052    0.0260 H         1 <0>         0.1351
     23 H2          1.1517    3.1677    0.0077 H         1 <0>         0.1451
     24 H3          3.3362   -0.5184   -0.0330 H         1 <0>         0.1376
     25 H4          1.2151   -1.7645   -0.0194 H         1 <0>         0.1359
     26 H5         -1.1480   -1.7260    0.5181 H         1 <0>         0.1400
     27 H6         -2.0555   -0.1948    0.5353 H         1 <0>         0.1400
     28 H7         -1.8647   -0.1319   -1.8408 H         1 <0>         0.4347
     29 H8         -1.0247   -1.5493   -1.8568 H         1 <0>         0.4344
     30 H9          5.0569    0.4371   -0.0532 H         1 <0>         0.2048
     31 H10         2.8710    6.0901    0.0321 H         1 <0>         0.1549
     32 H11         5.4840    9.4611    0.0195 H         1 <0>         0.1554
     33 H12         7.4364    7.9668   -0.0289 H         1 <0>         0.1599
     34 H13        -2.5973   -1.5291   -1.3654 H         1 <0>         0.4375
@<TRIPOS>BOND
     1    1    6 ar
     2    1    2 ar
     3    1   22 1
     4    2    3 ar
     5    2   23 1
     6    3    4 ar
     7    3    9 1
     8    4    5 ar
     9    4   24 1
    10    5    6 ar
    11    5   25 1
    12    6    7 1
    13    7    8 1
    14    7   26 1
    15    7   27 1
    16    8   28 1
    17    8   29 1
    18    8   34 1
    19    9   13 1
    20    9   10 2
    21   10   11 1
    22   10   30 1
    23   11   12 1
    24   12   13 2
    25   12   14 1
    26   14   19 ar
    27   14   15 ar
    28   15   16 ar
    29   15   31 1
    30   16   17 ar
    31   16   21 1
    32   17   18 ar
    33   17   32 1
    34   18   19 ar
    35   18   33 1
    36   19   20 1
@<TRIPOS>MOLECULE
ZINC43392659
   33    34     0     0     0
SMALL
USER_CHARGES

@<TRIPOS>ATOM
      1 C1         -0.0187    1.5258    0.0104 C.3       1 <0>        -0.1568
      2 C2          0.0021   -0.0041    0.0020 C.3       1 <0>        -0.1516
      3 C3          0.7182   -0.4975   -1.2568 C.3       1 <0>        -0.0103
      4 N1          0.7381   -1.9663   -1.2649 N.4       1 <0>        -0.5089
      5 C4          1.4257   -2.4401   -2.4735 C.3       1 <0>         0.0776
      6 C5          1.4462   -3.9469   -2.4818 C.2       1 <0>        -0.0121
      7 C6          0.4882   -4.6370   -3.1554 C.2       1 <0>        -0.1713
      8 S1          0.9999   -6.3188   -2.8260 S.3       1 <0>         0.1238
      9 C7          2.4300   -5.9201   -1.8297 C.2       1 <0>         0.1634
     10 N2          2.3921   -4.5950   -1.8430 N.2       1 <0>        -0.4936
     11 C8          3.3976   -6.8246   -1.1726 C.ar      1 <0>         0.0142
     12 C9          4.4527   -6.2979   -0.4265 C.ar      1 <0>        -0.0857
     13 C10         5.3541   -7.1468    0.1861 C.ar      1 <0>         0.1056
     14 C11         5.2118   -8.5209    0.0602 C.ar      1 <0>         0.0658
     15 C12         4.1647   -9.0489   -0.6809 C.ar      1 <0>         0.1115
     16 C13         3.2550   -8.2076   -1.2919 C.ar      1 <0>        -0.1071
     17 F1          4.0314  -10.3879   -0.8011 F         1 <0>        -0.1038
     18 F2          6.0958   -9.3474    0.6606 F         1 <0>        -0.1009
     19 F3          6.3759   -6.6379    0.9087 F         1 <0>        -0.1058
     20 H1          1.0039    1.9031    0.0027 H         1 <0>         0.0678
     21 H2         -0.5459    1.8868   -0.8726 H         1 <0>         0.0675
     22 H3         -0.5289    1.8773    0.9072 H         1 <0>         0.0779
     23 H4          0.5293   -0.3651    0.8851 H         1 <0>         0.0865
     24 H5         -1.0205   -0.3814    0.0098 H         1 <0>         0.0863
     25 H6          0.1910   -0.1364   -2.1398 H         1 <0>         0.1336
     26 H7          1.7408   -0.1202   -1.2645 H         1 <0>         0.1337
     27 H8          1.2261   -2.3006   -0.4474 H         1 <0>         0.4314
     28 H9          0.8985   -2.0790   -3.3565 H         1 <0>         0.1475
     29 H10         2.4483   -2.0628   -2.4812 H         1 <0>         0.1467
     30 H11        -0.3499   -4.2711   -3.7300 H         1 <0>         0.2143
     31 H12         4.5646   -5.2282   -0.3285 H         1 <0>         0.1662
     32 H13         2.4373   -8.6196   -1.8647 H         1 <0>         0.1601
     33 H14        -0.2085   -2.3156   -1.2577 H         1 <0>         0.4265
@<TRIPOS>BOND
     1    1    2 1
     2    1   20 1
     3    1   21 1
     4    1   22 1
     5    2    3 1
     6    2   23 1
     7    2   24 1
     8    3    4 1
     9    3   25 1
    10    3   26 1
    11    4    5 1
    12    4   27 1
    13    4   33 1
    14    5    6 1
    15    5   28 1
    16    5   29 1
    17    6   10 1
    18    6    7 2
    19    7    8 1
    20    7   30 1
    21    8    9 1
    22    9   10 2
    23    9   11 1
    24   11   16 ar
    25   11   12 ar
    26   12   13 ar
    27   12   31 1
    28   13   14 ar
    29   13   19 1
    30   14   15 ar
    31   14   18 1
    32   15   16 ar
    33   15   17 1
    34   16   32 1
@<TRIPOS>MOLECULE
ZINC00113988
   29    31     0     0     0
SMALL
USER_CHARGES
4-[2-(4-chlorophenyl)thiazol-4-yl]benzonitrile
@<TRIPOS>ATOM
      1 C1          7.5693    3.2582   -0.0541 C.ar      1 <0>        -0.0696
      2 C2          6.3051    2.7272   -0.0445 C.ar      1 <0>        -0.0876
      3 C3          6.1290    1.3425   -0.0502 C.ar      1 <0>         0.0048
      4 C4          7.2393    0.4966   -0.0602 C.ar      1 <0>        -0.1066
      5 C5          8.5044    1.0252   -0.0752 C.ar      1 <0>        -0.0674
      6 C6          8.6822    2.4120   -0.0695 C.ar      1 <0>        -0.0233
      7 C7         10.0030    2.9652   -0.0790 C.1       1 <0>         0.2497
      8 N1         11.0508    3.4040   -0.0866 N.1       1 <0>        -0.4104
      9 C8          4.7625    0.7702   -0.0394 C.2       1 <0>         0.0923
     10 C9          4.5808   -0.5899   -0.0448 C.2       1 <0>        -0.1846
     11 S1          2.7953   -0.6853   -0.0279 S.3       1 <0>         0.0383
     12 C10         2.4784    1.0739   -0.0154 C.2       1 <0>         0.1589
     13 N2          3.7072    1.5637   -0.0299 N.2       1 <0>        -0.4861
     14 C11         1.1856    1.7913    0.0004 C.ar      1 <0>        -0.0157
     15 C12        -0.0126    1.0758    0.0080 C.ar      1 <0>        -0.0780
     16 C13        -1.2156    1.7506    0.0173 C.ar      1 <0>        -0.1075
     17 C14        -1.2359    3.1351    0.0308 C.ar      1 <0>        -0.0167
     18 C15        -0.0502    3.8504    0.0233 C.ar      1 <0>        -0.1100
     19 C16         1.1588    3.1866    0.0082 C.ar      1 <0>        -0.0561
     20 Cl1        -2.7537    3.9774    0.0499 Cl        1 <0>        -0.0576
     21 H1          7.7053    4.3296   -0.0500 H         1 <0>         0.1371
     22 H2          5.4453    3.3807   -0.0322 H         1 <0>         0.1438
     23 H3          7.1017   -0.5746   -0.0605 H         1 <0>         0.1362
     24 H4          9.3633    0.3705   -0.0871 H         1 <0>         0.1381
     25 H5          5.3135   -1.3832   -0.0563 H         1 <0>         0.2054
     26 H6          0.0021   -0.0041    0.0020 H         1 <0>         0.1376
     27 H7         -2.1435    1.1979    0.0183 H         1 <0>         0.1441
     28 H8         -0.0722    4.9302    0.0290 H         1 <0>         0.1440
     29 H9          2.0829    3.7456    0.0020 H         1 <0>         0.1466
@<TRIPOS>BOND
     1    1    6 ar
     2    1    2 ar
     3    1   21 1
     4    2    3 ar
     5    2   22 1
     6    3    4 ar
     7    3    9 1
     8    4    5 ar
     9    4   23 1
    10    5    6 ar
    11    5   24 1
    12    6    7 1
    13    7    8 3
    14    9   13 1
    15    9   10 2
    16   10   11 1
    17   10   25 1
    18   11   12 1
    19   12   13 2
    20   12   14 1
    21   14   19 ar
    22   14   15 ar
    23   15   16 ar
    24   15   26 1
    25   16   17 ar
    26   16   27 1
    27   17   18 ar
    28   17   20 1
    29   18   19 ar
    30   18   28 1
    31   19   29 1
@<TRIPOS>MOLECULE
ZINC19723118
   20    21     0     0     0
SMALL
USER_CHARGES
2-(2-chlorophenyl)thiazole-4-carbaldehyde
@<TRIPOS>ATOM
      1 C1         -3.5604    3.0410    0.0368 C.ar      1 <0>        -0.1141
      2 C2         -3.3597    4.4102    0.0427 C.ar      1 <0>        -0.0867
      3 C3         -2.0772    4.9274    0.0386 C.ar      1 <0>        -0.1127
      4 C4         -0.9874    4.0786    0.0344 C.ar      1 <0>        -0.0018
      5 C5         -1.1838    2.6963    0.0226 C.ar      1 <0>        -0.0128
      6 C6         -2.4810    2.1822    0.0268 C.ar      1 <0>        -0.0831
      7 C7         -0.0221    1.7811    0.0118 C.2       1 <0>         0.1235
      8 N1          1.2641    2.0724    0.0011 N.2       1 <0>        -0.4271
      9 C8          2.1659    1.0995   -0.0127 C.2       1 <0>        -0.0474
     10 C9          1.7256   -0.2159   -0.0156 C.2       1 <0>        -0.1791
     11 S1          0.0021   -0.0041    0.0020 S.3       1 <0>         0.1053
     12 C10         3.5977    1.4081   -0.0243 C.2       1 <0>         0.3965
     13 O1          3.9695    2.5633   -0.0216 O.2       1 <0>        -0.4315
     14 Cl1         0.6222    4.7289    0.0365 Cl        1 <0>        -0.0224
     15 H1         -4.5647    2.6438    0.0404 H         1 <0>         0.1392
     16 H2         -4.2086    5.0779    0.0501 H         1 <0>         0.1394
     17 H3         -1.9273    5.9969    0.0428 H         1 <0>         0.1422
     18 H4         -2.6396    1.1139    0.0219 H         1 <0>         0.1355
     19 H5          2.3018   -1.1294   -0.0263 H         1 <0>         0.2119
     20 H6          4.3360    0.5927   -0.0355 H         1 <0>         0.1254
@<TRIPOS>BOND
     1    1    6 ar
     2    1    2 ar
     3    1   15 1
     4    2    3 ar
     5    2   16 1
     6    3    4 ar
     7    3   17 1
     8    4    5 ar
     9    4   14 1
    10    5    6 ar
    11    5    7 1
    12    6   18 1
    13    7   11 1
    14    7    8 2
    15    8    9 1
    16    9   10 2
    17    9   12 1
    18   10   11 1
    19   10   19 1
    20   12   13 2
    21   12   20 1
@<TRIPOS>MOLECULE
ZINC00111312
   31    33     0     0     0
SMALL
USER_CHARGES
2-phenyl-4-(p-tolyl)thiazole
@<TRIPOS>ATOM
      1 C1          3.3616   -5.6364   -0.0602 C.3       1 <0>        -0.1178
      2 C2          2.8359   -4.2241   -0.0481 C.ar      1 <0>        -0.0780
      3 C3          3.7195   -3.1599   -0.0509 C.ar      1 <0>        -0.1236
      4 C4          3.2437   -1.8645   -0.0394 C.ar      1 <0>        -0.0805
      5 C5          1.8701   -1.6296   -0.0250 C.ar      1 <0>        -0.0354
      6 C6          0.9844   -2.7057   -0.0170 C.ar      1 <0>        -0.0996
      7 C7          1.4714   -3.9969   -0.0339 C.ar      1 <0>        -0.1215
      8 C8          1.3525   -0.2394   -0.0121 C.2       1 <0>         0.1039
      9 C9          0.0021   -0.0041    0.0020 C.2       1 <0>        -0.1964
     10 S1         -0.0222    1.7840    0.0119 S.3       1 <0>         0.0204
     11 C10         1.7483    2.0303   -0.0037 C.2       1 <0>         0.1635
     12 N1          2.1879    0.7821   -0.0146 N.2       1 <0>        -0.4911
     13 C11         2.5173    3.2933   -0.0043 C.ar      1 <0>        -0.0207
     14 C12         3.9124    3.2642   -0.0124 C.ar      1 <0>        -0.0693
     15 C13         4.6240    4.4462   -0.0178 C.ar      1 <0>        -0.1204
     16 C14         3.9574    5.6585   -0.0044 C.ar      1 <0>        -0.0982
     17 C15         2.5744    5.6942    0.0091 C.ar      1 <0>        -0.1178
     18 C16         1.8510    4.5194    0.0092 C.ar      1 <0>        -0.0909
     19 H1          3.4978   -5.9822    0.9645 H         1 <0>         0.0725
     20 H2          2.6495   -6.2848   -0.5708 H         1 <0>         0.0676
     21 H3          4.3176   -5.6638   -0.5831 H         1 <0>         0.0677
     22 H4          4.7838   -3.3431   -0.0624 H         1 <0>         0.1252
     23 H5          3.9345   -1.0344   -0.0412 H         1 <0>         0.1320
     24 H6         -0.0810   -2.5294   -0.0017 H         1 <0>         0.1242
     25 H7          0.7860   -4.8315   -0.0322 H         1 <0>         0.1262
     26 H8         -0.8198   -0.7047    0.0056 H         1 <0>         0.2014
     27 H9          4.4340    2.3185   -0.0184 H         1 <0>         0.1355
     28 H10         5.7038    4.4251   -0.0286 H         1 <0>         0.1321
     29 H11         4.5191    6.5810   -0.0048 H         1 <0>         0.1296
     30 H12         2.0600    6.6438    0.0198 H         1 <0>         0.1324
     31 H13         0.7715    4.5486    0.0193 H         1 <0>         0.1272
@<TRIPOS>BOND
     1    1    2 1
     2    1   19 1
     3    1   20 1
     4    1   21 1
     5    2    7 ar
     6    2    3 ar
     7    3    4 ar
     8    3   22 1
     9    4    5 ar
    10    4   23 1
    11    5    6 ar
    12    5    8 1
    13    6    7 ar
    14    6   24 1
    15    7   25 1
    16    8   12 1
    17    8    9 2
    18    9   10 1
    19    9   26 1
    20   10   11 1
    21   11   12 2
    22   11   13 1
    23   13   18 ar
    24   13   14 ar
    25   14   15 ar
    26   14   27 1
    27   15   16 ar
    28   15   28 1
    29   16   17 ar
    30   16   29 1
    31   17   18 ar
    32   17   30 1
    33   18   31 1
@<TRIPOS>MOLECULE
ZINC44676022
   31    33     0     0     0
SMALL
USER_CHARGES

@<TRIPOS>ATOM
      1 C1         -0.0184    1.5028    0.0103 C.3       1 <0>        -0.1209
      2 C2          0.0021   -0.0041    0.0020 C.ar      1 <0>        -0.0628
      3 C3          0.0057   -0.6862   -1.2016 C.ar      1 <0>        -0.1197
      4 C4          0.0243   -2.0657   -1.2161 C.ar      1 <0>        -0.0851
      5 C5          0.0396   -2.7729   -0.0132 C.ar      1 <0>        -0.0279
      6 C6          0.0359   -2.0788    1.1974 C.ar      1 <0>        -0.0635
      7 C7          0.0229   -0.6992    1.1981 C.ar      1 <0>        -0.1223
      8 C8          0.0592   -4.2515   -0.0214 C.2       1 <0>         0.1662
      9 N1          0.0700   -5.0945    0.9987 N.2       1 <0>        -0.4923
     10 C9          0.0873   -6.4003    0.8093 C.2       1 <0>         0.1026
     11 C10         0.0943   -6.8946   -0.4694 C.2       1 <0>        -0.1964
     12 S1          0.0667   -5.3750   -1.4117 S.3       1 <0>         0.0197
     13 C11         0.0996   -7.3249    1.9693 C.ar      1 <0>        -0.0289
     14 C12         0.1242   -8.7033    1.7649 C.ar      1 <0>        -0.1048
     15 C13         0.1355   -9.5588    2.8478 C.ar      1 <0>        -0.1203
     16 C14         0.1220   -9.0505    4.1342 C.ar      1 <0>        -0.1128
     17 C15         0.0976   -7.6833    4.3431 C.ar      1 <0>        -0.1225
     18 C16         0.0924   -6.8183    3.2676 C.ar      1 <0>        -0.0858
     19 H1          1.0042    1.8801    0.0026 H         1 <0>         0.0759
     20 H2         -0.5455    1.8639   -0.8728 H         1 <0>         0.0704
     21 H3         -0.5286    1.8543    0.9071 H         1 <0>         0.0705
     22 H4         -0.0065   -0.1377   -2.1319 H         1 <0>         0.1321
     23 H5          0.0268   -2.5970   -2.1564 H         1 <0>         0.1276
     24 H6          0.0473   -2.6204    2.1317 H         1 <0>         0.1358
     25 H7          0.0244   -0.1608    2.1343 H         1 <0>         0.1317
     26 H8          0.1085   -7.9185   -0.8127 H         1 <0>         0.2014
     27 H9          0.1341   -9.1012    0.7609 H         1 <0>         0.1239
     28 H10         0.1546  -10.6271    2.6905 H         1 <0>         0.1265
     29 H11         0.1302   -9.7236    4.9787 H         1 <0>         0.1242
     30 H12         0.0868   -7.2919    5.3496 H         1 <0>         0.1256
     31 H13         0.0779   -5.7510    3.4318 H         1 <0>         0.1318
@<TRIPOS>BOND
     1    1    2 1
     2    1   19 1
     3    1   20 1
     4    1   21 1
     5    2    7 ar
     6    2    3 ar
     7    3    4 ar
     8    3   22 1
     9    4    5 ar
    10    4   23 1
    11    5    6 ar
    12    5    8 1
    13    6    7 ar
    14    6   24 1
    15    7   25 1
    16    8   12 1
    17    8    9 2
    18    9   10 1
    19   10   11 2
    20   10   13 1
    21   11   12 1
    22   11   26 1
    23   13   18 ar
    24   13   14 ar
    25   14   15 ar
    26   14   27 1
    27   15   16 ar
    28   15   28 1
    29   16   17 ar
    30   16   29 1
    31   17   18 ar
    32   17   30 1
    33   18   31 1
@<TRIPOS>MOLECULE
ZINC76784257
   36    37     0     0     0
SMALL
USER_CHARGES

@<TRIPOS>ATOM
      1 C1         -0.0187    1.5258    0.0104 C.3       1 <0>        -0.1561
      2 C2          0.0021   -0.0041    0.0020 C.3       1 <0>        -0.1499
      3 C3         -1.4333   -0.5336    0.0129 C.3       1 <0>        -0.0157
      4 N1         -1.4134   -2.0025    0.0048 N.4       1 <0>        -0.5004
      5 C4         -2.7915   -2.5110    0.0152 C.3       1 <0>         0.1167
      6 H1         -3.3284   -2.0882    0.8645 H         1 <0>         0.1507
      7 C5         -3.4935   -2.1085   -1.2833 C.3       1 <0>        -0.1799
      8 C6         -2.7718   -4.0134    0.1308 C.2       1 <0>         0.0027
      9 C7         -3.8413   -4.6702    0.6531 C.2       1 <0>        -0.1759
     10 S1         -3.2744   -6.3629    0.5442 S.3       1 <0>         0.1059
     11 C8         -1.6792   -6.0118   -0.1831 C.2       1 <0>         0.1801
     12 N2         -1.7243   -4.6903   -0.2776 N.2       1 <0>        -0.5322
     13 C9         -0.6021   -6.9447   -0.5779 C.ar      1 <0>        -0.0362
     14 C10         0.5821   -6.4541   -1.1298 C.ar      1 <0>        -0.0538
     15 C11         1.5836   -7.3291   -1.4958 C.ar      1 <0>        -0.1112
     16 C12         1.4156   -8.6919   -1.3169 C.ar      1 <0>        -0.0066
     17 C13         0.2426   -9.1846   -0.7703 C.ar      1 <0>        -0.1046
     18 C14        -0.7634   -8.3188   -0.3947 C.ar      1 <0>        -0.0707
     19 Cl1         2.6802   -9.7872   -1.7805 Cl        1 <0>        -0.0428
     20 H2          1.0039    1.9031    0.0027 H         1 <0>         0.0777
     21 H3         -0.5459    1.8868   -0.8726 H         1 <0>         0.0672
     22 H4         -0.5289    1.8773    0.9072 H         1 <0>         0.0671
     23 H5          0.5123   -0.3556   -0.8948 H         1 <0>         0.0866
     24 H6          0.5293   -0.3651    0.8851 H         1 <0>         0.0861
     25 H7         -1.9435   -0.1821    0.9097 H         1 <0>         0.1319
     26 H8         -1.9605   -0.1726   -0.8702 H         1 <0>         0.1335
     27 H9         -0.9411   -2.3279   -0.8254 H         1 <0>         0.4325
     28 H10        -2.9566   -2.5312   -2.1326 H         1 <0>         0.0842
     29 H11        -4.5161   -2.4858   -1.2756 H         1 <0>         0.1068
     30 H12        -3.5077   -1.0218   -1.3669 H         1 <0>         0.0894
     31 H13        -4.7746   -4.2783    1.0298 H         1 <0>         0.2107
     32 H14         0.7140   -5.3914   -1.2704 H         1 <0>         0.1409
     33 H15         2.5005   -6.9506   -1.9230 H         1 <0>         0.1471
     34 H16         0.1169  -10.2485   -0.6338 H         1 <0>         0.1496
     35 H17        -1.6759   -8.7038    0.0360 H         1 <0>         0.1391
     36 H18        -0.9254   -2.3367    0.8222 H         1 <0>         0.4293
@<TRIPOS>BOND
     1    1    2 1
     2    1   20 1
     3    1   21 1
     4    1   22 1
     5    2    3 1
     6    2   23 1
     7    2   24 1
     8    3    4 1
     9    3   25 1
    10    3   26 1
    11    4    5 1
    12    4   27 1
    13    4   36 1
    14    5    6 1
    15    5    7 1
    16    5    8 1
    17    7   28 1
    18    7   29 1
    19    7   30 1
    20    8   12 1
    21    8    9 2
    22    9   10 1
    23    9   31 1
    24   10   11 1
    25   11   12 2
    26   11   13 1
    27   13   18 ar
    28   13   14 ar
    29   14   15 ar
    30   14   32 1
    31   15   16 ar
    32   15   33 1
    33   16   17 ar
    34   16   19 1
    35   17   18 ar
    36   17   34 1
    37   18   35 1
@<TRIPOS>MOLECULE
ZINC93874523
   44    45     0     0     0
SMALL
USER_CHARGES

@<TRIPOS>ATOM
      1 C1         -1.4184   -0.9554    0.5275 C.3       1 <0>        -0.1655
      2 C2         -0.0431   -0.3915    0.1648 C.3       1 <0>        -0.0753
      3 C3          0.0090    1.0952    0.5226 C.3       1 <0>        -0.1718
      4 C4          1.0379   -1.1420    0.9452 C.3       1 <0>         0.0035
      5 N1          0.8054   -0.9767    2.3862 N.4       1 <0>        -0.6406
      6 C5          0.1990   -0.5636   -1.3361 C.3       1 <0>         0.0573
      7 N2          1.5225   -0.0289   -1.6831 N.3       1 <0>        -0.5398
      8 C6          1.4512    1.4109   -1.9654 C.3       1 <0>         0.0021
      9 C7          2.1048   -0.7594   -2.8168 C.3       1 <0>         0.1238
     10 C8          3.5466   -0.3556   -2.9874 C.2       1 <0>         0.0570
     11 C9          4.5338   -1.1021   -2.4251 C.2       1 <0>        -0.2144
     12 S1          5.9779   -0.1810   -2.9398 S.3       1 <0>         0.0745
     13 C10         5.1113    1.0942   -3.8453 C.2       1 <0>         0.1438
     14 N3          3.8516    0.7142   -3.6837 N.2       1 <0>        -0.4910
     15 C11         5.6539    2.2563   -4.5809 C.ar      1 <0>        -0.0121
     16 C12         4.7902    3.1454   -5.2221 C.ar      1 <0>        -0.0601
     17 C13         5.3027    4.2277   -5.9068 C.ar      1 <0>        -0.1125
     18 C14         6.6702    4.4335   -5.9592 C.ar      1 <0>        -0.0835
     19 C15         7.5325    3.5568   -5.3263 C.ar      1 <0>        -0.1047
     20 C16         7.0325    2.4723   -4.6323 C.ar      1 <0>        -0.0223
     21 Cl1         8.1156    1.3766   -3.8322 Cl        1 <0>        -0.0340
     22 H1         -2.1921   -0.3845    0.0141 H         1 <0>         0.0839
     23 H2         -1.4747   -2.0002    0.2221 H         1 <0>         0.0751
     24 H3         -1.5681   -0.8832    1.6047 H         1 <0>         0.0544
     25 H4         -0.4222    1.2461    1.5122 H         1 <0>         0.0557
     26 H5          1.0454    1.4328    0.5224 H         1 <0>         0.0806
     27 H6         -0.5591    1.6659   -0.2121 H         1 <0>         0.0823
     28 H7          1.0008   -2.2011    0.6903 H         1 <0>         0.1315
     29 H8          2.0176   -0.7403    0.6868 H         1 <0>         0.1468
     30 H9          0.8398    0.0037    2.6222 H         1 <0>         0.4326
     31 H10        -0.1016   -1.3486    2.6254 H         1 <0>         0.4303
     32 H11         0.1564   -1.6223   -1.5919 H         1 <0>         0.0832
     33 H12        -0.5679   -0.0243   -1.8921 H         1 <0>         0.0649
     34 H13         1.2218    1.9504   -1.0464 H         1 <0>         0.0760
     35 H14         2.4092    1.7522   -2.3576 H         1 <0>         0.0849
     36 H15         0.6695    1.5985   -2.7015 H         1 <0>         0.0336
     37 H16         2.0477   -1.8311   -2.6263 H         1 <0>         0.0907
     38 H17         1.5510   -0.5218   -3.7251 H         1 <0>         0.0570
     39 H18         4.4651   -2.0018   -1.8316 H         1 <0>         0.1924
     40 H19         3.7227    2.9862   -5.1827 H         1 <0>         0.1434
     41 H20         4.6351    4.9160   -6.4036 H         1 <0>         0.1409
     42 H21         7.0658    5.2824   -6.4970 H         1 <0>         0.1428
     43 H22         8.5987    3.7231   -5.3709 H         1 <0>         0.1454
     44 H23         1.5183   -1.4717    2.9009 H         1 <0>         0.4370
@<TRIPOS>BOND
     1    1    2 1
     2    1   22 1
     3    1   23 1
     4    1   24 1
     5    2    3 1
     6    2    4 1
     7    2    6 1
     8    3   25 1
     9    3   26 1
    10    3   27 1
    11    4    5 1
    12    4   28 1
    13    4   29 1
    14    5   30 1
    15    5   31 1
    16    5   44 1
    17    6    7 1
    18    6   32 1
    19    6   33 1
    20    7    8 1
    21    7    9 1
    22    8   34 1
    23    8   35 1
    24    8   36 1
    25    9   10 1
    26    9   37 1
    27    9   38 1
    28   10   14 1
    29   10   11 2
    30   11   12 1
    31   11   39 1
    32   12   13 1
    33   13   14 2
    34   13   15 1
    35   15   20 ar
    36   15   16 ar
    37   16   17 ar
    38   16   40 1
    39   17   18 ar
    40   17   41 1
    41   18   19 ar
    42   18   42 1
    43   19   20 ar
    44   19   43 1
    45   20   21 1
@<TRIPOS>MOLECULE
ZINC93874523
   45    46     0     0     0
SMALL
USER_CHARGES

@<TRIPOS>ATOM
      1 C1         -0.5847    1.3355   -1.1423 C.3       1 <0>        -0.1919
      2 C2         -0.4307   -0.1781   -1.3037 C.3       1 <0>        -0.1106
      3 C3         -0.2854   -0.8258    0.0749 C.3       1 <0>        -0.1928
      4 C4         -1.6665   -0.7445   -2.0056 C.3       1 <0>         0.0045
      5 N1         -2.8615   -0.4569   -1.2011 N.4       1 <0>        -0.6397
      6 C5          0.8139   -0.4777   -2.1416 C.3       1 <0>        -0.0002
      7 N2          2.0152   -0.0905   -1.3899 N.4       1 <0>        -0.3829
      8 C6          2.1044    1.3746   -1.3302 C.3       1 <0>        -0.0777
      9 C7          3.2068   -0.6268   -2.0609 C.3       1 <0>         0.0752
     10 C8          4.4272   -0.3354   -1.2263 C.2       1 <0>        -0.0147
     11 C9          4.8989   -1.2710   -0.3601 C.2       1 <0>        -0.2119
     12 S1          6.3056   -0.4057    0.3264 S.3       1 <0>         0.1564
     13 C10         6.1123    1.1035   -0.6127 C.2       1 <0>         0.1683
     14 N3          5.0397    0.8199   -1.3384 N.2       1 <0>        -0.5076
     15 C11         6.9314    2.3342   -0.5902 C.ar      1 <0>        -0.0336
     16 C12         6.5981    3.4131   -1.4102 C.ar      1 <0>        -0.0552
     17 C13         7.3664    4.5585   -1.3846 C.ar      1 <0>        -0.1119
     18 C14         8.4658    4.6399   -0.5481 C.ar      1 <0>        -0.0684
     19 C15         8.8025    3.5750    0.2675 C.ar      1 <0>        -0.1008
     20 C16         8.0385    2.4243    0.2560 C.ar      1 <0>        -0.0172
     21 Cl1         8.4579    1.0909    1.2855 Cl        1 <0>        -0.0261
     22 H1          0.0160    1.6739   -0.2981 H         1 <0>         0.0948
     23 H2         -0.2475    1.8340   -2.0511 H         1 <0>         0.0949
     24 H3         -1.6323    1.5770   -0.9627 H         1 <0>         0.0713
     25 H4         -1.1721   -0.6124    0.6718 H         1 <0>         0.0865
     26 H5         -0.1757   -1.9042   -0.0401 H         1 <0>         0.0958
     27 H6          0.5950   -0.4223    0.5749 H         1 <0>         0.0807
     28 H7         -1.7700   -0.2831   -2.9877 H         1 <0>         0.1491
     29 H8         -1.5568   -1.8229   -2.1206 H         1 <0>         0.1488
     30 H9         -2.9631    0.5413   -1.0947 H         1 <0>         0.4360
     31 H10        -3.6765   -0.8305   -1.6640 H         1 <0>         0.4504
     32 H11         0.8533   -1.5437   -2.3654 H         1 <0>         0.1433
     33 H12         0.7699    0.0877   -3.0725 H         1 <0>         0.1462
     34 H13         1.6319    1.8036   -2.2138 H         1 <0>         0.1273
     35 H14         1.5956    1.7335   -0.4356 H         1 <0>         0.1233
     36 H15         3.1521    1.6737   -1.2971 H         1 <0>         0.1478
     37 H16         3.1000   -1.7045   -2.1846 H         1 <0>         0.1450
     38 H17         3.3150   -0.1578   -3.0389 H         1 <0>         0.1463
     39 H18         4.5271   -2.2620   -0.1456 H         1 <0>         0.2050
     40 H19         5.7406    3.3513   -2.0639 H         1 <0>         0.1427
     41 H20         7.1094    5.3937   -2.0192 H         1 <0>         0.1455
     42 H21         9.0639    5.5390   -0.5325 H         1 <0>         0.1490
     43 H22         9.6618    3.6449    0.9180 H         1 <0>         0.1515
     44 H23        -2.7657   -0.8841   -0.2920 H         1 <0>         0.4367
     45 H24         1.9604   -0.4625   -0.4535 H         1 <0>         0.4209
@<TRIPOS>BOND
     1    1    2 1
     2    1   22 1
     3    1   23 1
     4    1   24 1
     5    2    3 1
     6    2    4 1
     7    2    6 1
     8    3   25 1
     9    3   26 1
    10    3   27 1
    11    4    5 1
    12    4   28 1
    13    4   29 1
    14    5   30 1
    15    5   31 1
    16    5   44 1
    17    6    7 1
    18    6   32 1
    19    6   33 1
    20    7    8 1
    21    7    9 1
    22    7   45 1
    23    8   34 1
    24    8   35 1
    25    8   36 1
    26    9   10 1
    27    9   37 1
    28    9   38 1
    29   10   14 1
    30   10   11 2
    31   11   12 1
    32   11   39 1
    33   12   13 1
    34   13   14 2
    35   13   15 1
    36   15   20 ar
    37   15   16 ar
    38   16   17 ar
    39   16   40 1
    40   17   18 ar
    41   17   41 1
    42   18   19 ar
    43   18   42 1
    44   19   20 ar
    45   19   43 1
    46   20   21 1
@<TRIPOS>MOLECULE
ZINC80803054
   30    31     0     0     0
SMALL
USER_CHARGES

@<TRIPOS>ATOM
      1 C1         -0.0187    1.5258    0.0104 C.3       1 <0>        -0.1800
      2 C2          0.0021   -0.0041    0.0020 C.3       1 <0>         0.1149
      3 H1          0.5123   -0.3556   -0.8948 H         1 <0>         0.1513
      4 C3         -1.4117   -0.5257    0.0127 C.2       1 <0>        -0.0057
      5 C4         -2.0953   -0.6636   -1.1541 C.2       1 <0>        -0.1935
      6 S1         -3.6550   -1.2967   -0.5500 S.3       1 <0>         0.1522
      7 C5         -3.2275   -1.3086    1.1861 C.2       1 <0>         0.1489
      8 N1         -1.9832   -0.8526    1.1482 N.2       1 <0>        -0.5072
      9 C6         -4.0407   -1.7207    2.3498 C.ar      1 <0>        -0.0143
     10 C7         -3.5097   -1.6442    3.6392 C.ar      1 <0>         0.0203
     11 C8         -4.2753   -2.0305    4.7216 C.ar      1 <0>        -0.1021
     12 C9         -5.5652   -2.4922    4.5311 C.ar      1 <0>        -0.0629
     13 C10        -6.0976   -2.5711    3.2568 C.ar      1 <0>        -0.0954
     14 C11        -5.3456   -2.1828    2.1655 C.ar      1 <0>        -0.0111
     15 Cl1        -6.0183   -2.2753    0.5678 Cl        1 <0>        -0.0145
     16 Cl2        -1.8908   -1.0656    3.8805 Cl        1 <0>        -0.0430
     17 N2          0.7126   -0.4907    1.1921 N.4       1 <0>        -0.5028
     18 C12         2.1220   -0.0825    1.1220 C.3       1 <0>        -0.0534
     19 H2          1.0039    1.9031    0.0027 H         1 <0>         0.0892
     20 H3         -0.5459    1.8868   -0.8726 H         1 <0>         0.1072
     21 H4         -0.5289    1.8773    0.9072 H         1 <0>         0.0836
     22 H5         -1.7830   -0.4500   -2.1656 H         1 <0>         0.2069
     23 H6         -3.8658   -1.9722    5.7193 H         1 <0>         0.1545
     24 H7         -6.1595   -2.7929    5.3813 H         1 <0>         0.1577
     25 H8         -7.1053   -2.9328    3.1153 H         1 <0>         0.1567
     26 H9          0.2896   -0.0986    2.0201 H         1 <0>         0.4304
     27 H10         2.6492   -0.4436    2.0051 H         1 <0>         0.1280
     28 H11         2.5788   -0.5061    0.2276 H         1 <0>         0.1263
     29 H12         2.1837    1.0050    1.0814 H         1 <0>         0.1263
     30 H13         0.6554   -1.4974    1.2298 H         1 <0>         0.4314
@<TRIPOS>BOND
     1    1    2 1
     2    1   19 1
     3    1   20 1
     4    1   21 1
     5    2    3 1
     6    2    4 1
     7    2   17 1
     8    4    8 1
     9    4    5 2
    10    5    6 1
    11    5   22 1
    12    6    7 1
    13    7    8 2
    14    7    9 1
    15    9   14 ar
    16    9   10 ar
    17   10   11 ar
    18   10   16 1
    19   11   12 ar
    20   11   23 1
    21   12   13 ar
    22   12   24 1
    23   13   14 ar
    24   13   25 1
    25   14   15 1
    26   17   18 1
    27   17   26 1
    28   17   30 1
    29   18   27 1
    30   18   28 1
    31   18   29 1
@<TRIPOS>MOLECULE
ZINC80803051
   30    31     0     0     0
SMALL
USER_CHARGES

@<TRIPOS>ATOM
      1 C1         -0.0187    1.5258    0.0104 C.3       1 <0>        -0.1801
      2 C2          0.0021   -0.0041    0.0020 C.3       1 <0>         0.1150
      3 H1          0.5123   -0.3556   -0.8948 H         1 <0>         0.1514
      4 C3          0.7309   -0.5033    1.2229 C.2       1 <0>        -0.0057
      5 C4          2.0859   -0.6103    1.2105 C.2       1 <0>        -0.1934
      6 S1          2.3833   -1.2290    2.8619 S.3       1 <0>         0.1523
      7 C5          0.6749   -1.2775    3.3873 C.2       1 <0>         0.1488
      8 N1          0.0588   -0.8304    2.3018 N.2       1 <0>        -0.5071
      9 C6          0.1037   -1.6979    4.6843 C.ar      1 <0>        -0.0142
     10 C7         -1.2776   -1.6637    4.8866 C.ar      1 <0>         0.0204
     11 C8         -1.8042   -2.0584    6.1007 C.ar      1 <0>        -0.1021
     12 C9         -0.9670   -2.4869    7.1150 C.ar      1 <0>        -0.0629
     13 C10         0.4023   -2.5230    6.9218 C.ar      1 <0>        -0.0954
     14 C11         0.9425   -2.1367    5.7110 C.ar      1 <0>        -0.0112
     15 Cl1         2.6606   -2.1901    5.4681 Cl        1 <0>        -0.0144
     16 Cl2        -2.3302   -1.1258    3.6152 Cl        1 <0>        -0.0432
     17 N2         -1.3761   -0.5125    0.0124 N.4       1 <0>        -0.5028
     18 C12        -2.0500   -0.1262   -1.2343 C.3       1 <0>        -0.0535
     19 H2          1.0039    1.9031    0.0027 H         1 <0>         0.1072
     20 H3         -0.5459    1.8868   -0.8726 H         1 <0>         0.0892
     21 H4         -0.5289    1.8773    0.9072 H         1 <0>         0.0836
     22 H5          2.7883   -0.3843    0.4218 H         1 <0>         0.2069
     23 H6         -2.8723   -2.0322    6.2587 H         1 <0>         0.1545
     24 H7         -1.3843   -2.7945    8.0625 H         1 <0>         0.1577
     25 H8          1.0501   -2.8583    7.7183 H         1 <0>         0.1567
     26 H9         -1.3629   -1.5185    0.0898 H         1 <0>         0.4314
     27 H10        -3.0726   -0.5034   -1.2266 H         1 <0>         0.1280
     28 H11        -2.0643    0.9605   -1.3179 H         1 <0>         0.1263
     29 H12        -1.5132   -0.5489   -2.0836 H         1 <0>         0.1264
     30 H13        -1.8730   -0.1212    0.7986 H         1 <0>         0.4304
@<TRIPOS>BOND
     1    1    2 1
     2    1   19 1
     3    1   20 1
     4    1   21 1
     5    2    3 1
     6    2    4 1
     7    2   17 1
     8    4    8 1
     9    4    5 2
    10    5    6 1
    11    5   22 1
    12    6    7 1
    13    7    8 2
    14    7    9 1
    15    9   14 ar
    16    9   10 ar
    17   10   11 ar
    18   10   16 1
    19   11   12 ar
    20   11   23 1
    21   12   13 ar
    22   12   24 1
    23   13   14 ar
    24   13   25 1
    25   14   15 1
    26   17   18 1
    27   17   26 1
    28   17   30 1
    29   18   27 1
    30   18   28 1
    31   18   29 1
@<TRIPOS>MOLECULE
ZINC35385232
   29    30     0     0     0
SMALL
USER_CHARGES

@<TRIPOS>ATOM
      1 C1         -0.0166    1.3752    0.0096 C.ar      1 <0>        -0.1118
      2 C2          1.1701    2.0869    0.0021 C.ar      1 <0>        -0.0805
      3 C3          2.3826    1.4218   -0.0130 C.ar      1 <0>        -0.1049
      4 C4          2.4159    0.0410   -0.0212 C.ar      1 <0>        -0.0203
      5 C5          1.2216   -0.6825   -0.0136 C.ar      1 <0>        -0.0167
      6 C6          0.0021   -0.0041    0.0020 C.ar      1 <0>        -0.0557
      7 C7          1.2488   -2.1607   -0.0228 C.2       1 <0>         0.1514
      8 N1          0.2401   -3.0208   -0.0234 N.2       1 <0>        -0.4909
      9 C8          0.4494   -4.3164   -0.0329 C.2       1 <0>        -0.0040
     10 C9          1.7209   -4.7972   -0.0424 C.2       1 <0>        -0.1987
     11 S1          2.6512   -3.2697   -0.0439 S.3       1 <0>         0.1188
     12 C10        -0.7179   -5.2696   -0.0328 C.3       1 <0>         0.0730
     13 N2         -1.1665   -5.4943    1.3478 N.4       1 <0>        -0.4825
     14 C11        -2.3043   -6.4234    1.3479 C.3       1 <0>        -0.0830
     15 C12        -2.7645   -6.6539    2.7643 C.2       1 <0>         0.4839
     16 O1         -2.1972   -6.0960    3.6881 O.co2     1 <0>        -0.6755
     17 O2         -3.7041   -7.3984    2.9865 O.co2     1 <0>        -0.6398
     18 Cl1         3.9384   -0.7927   -0.0413 Cl        1 <0>        -0.0327
     19 H1         -0.9599    1.9010    0.0259 H         1 <0>         0.1428
     20 H2          1.1494    3.1667    0.0077 H         1 <0>         0.1434
     21 H3          3.3052    1.9832   -0.0188 H         1 <0>         0.1461
     22 H4         -0.9251   -0.5578    0.0082 H         1 <0>         0.1466
     23 H5          2.0720   -5.8185   -0.0509 H         1 <0>         0.2066
     24 H6         -1.5348   -4.8437   -0.6155 H         1 <0>         0.1374
     25 H7         -0.4125   -6.2181   -0.4746 H         1 <0>         0.1387
     26 H8         -0.4103   -5.8885    1.8872 H         1 <0>         0.4252
     27 H9         -3.1212   -5.9975    0.7653 H         1 <0>         0.1267
     28 H10        -1.9989   -7.3719    0.9062 H         1 <0>         0.1265
     29 H11        -1.4492   -4.6162    1.7568 H         1 <0>         0.4298
@<TRIPOS>BOND
     1    1    6 ar
     2    1    2 ar
     3    1   19 1
     4    2    3 ar
     5    2   20 1
     6    3    4 ar
     7    3   21 1
     8    4    5 ar
     9    4   18 1
    10    5    6 ar
    11    5    7 1
    12    6   22 1
    13    7   11 1
    14    7    8 2
    15    8    9 1
    16    9   10 2
    17    9   12 1
    18   10   11 1
    19   10   23 1
    20   12   13 1
    21   12   24 1
    22   12   25 1
    23   13   14 1
    24   13   26 1
    25   13   29 1
    26   14   15 1
    27   14   27 1
    28   14   28 1
    29   15   16 2
    30   15   17 1
@<TRIPOS>MOLECULE
ZINC23253647
   39    41     0     0     0
SMALL
USER_CHARGES

@<TRIPOS>ATOM
      1 C1         -0.0178    1.4648    0.0101 C.3       1 <0>        -0.0457
      2 N1          0.0021   -0.0041    0.0020 N.4       1 <0>        -0.3883
      3 C2         -1.3761   -0.5122    0.0107 C.3       1 <0>        -0.0014
      4 C3         -1.3560   -2.0421   -0.0167 C.3       1 <0>         0.0250
      5 N2         -0.6244   -2.5407    1.1564 N.3       1 <0>        -0.5358
      6 C4          0.7499   -2.0201    1.1745 C.3       1 <0>         0.0263
      7 C5          0.7125   -0.4904    1.1921 C.3       1 <0>        -0.0028
      8 C6         -0.6316   -4.0091    1.1963 C.3       1 <0>         0.1310
      9 C7         -0.0938   -4.4782    2.5236 C.2       1 <0>         0.0411
     10 C8         -0.9486   -4.7750    3.5382 C.2       1 <0>        -0.1989
     11 S1          0.2082   -5.2577    4.8138 S.3       1 <0>         0.0901
     12 C9          1.6999   -5.0122    3.8592 C.2       1 <0>         0.1381
     13 N3          1.2004   -4.6060    2.7003 N.2       1 <0>        -0.4974
     14 C10         3.1104   -5.2133    4.2540 C.ar      1 <0>        -0.0116
     15 C11         4.1368   -4.9535    3.3448 C.ar      1 <0>        -0.0625
     16 C12         5.4507   -5.1432    3.7193 C.ar      1 <0>        -0.1132
     17 C13         5.7531   -5.5902    4.9936 C.ar      1 <0>        -0.0831
     18 C14         4.7417   -5.8499    5.9003 C.ar      1 <0>        -0.1031
     19 C15         3.4219   -5.6587    5.5403 C.ar      1 <0>        -0.0225
     20 Cl1         2.1535   -5.9782    6.6817 Cl        1 <0>        -0.0309
     21 H1          1.0047    1.8421    0.0024 H         1 <0>         0.1239
     22 H2         -0.5450    1.8259   -0.8730 H         1 <0>         0.1243
     23 H3         -0.5280    1.8163    0.9069 H         1 <0>         0.1225
     24 H4         -1.8832   -0.1716    0.9134 H         1 <0>         0.1370
     25 H5         -1.9060   -0.1400   -0.8661 H         1 <0>         0.1364
     26 H6         -2.3783   -2.4196    0.0047 H         1 <0>         0.1244
     27 H7         -0.8610   -2.3831   -0.9260 H         1 <0>         0.0618
     28 H8          1.2641   -2.3816    2.0650 H         1 <0>         0.1279
     29 H9          1.2796   -2.3607    0.2848 H         1 <0>         0.0622
     30 H10         1.7310   -0.1020    1.1912 H         1 <0>         0.1346
     31 H11         0.1947   -0.1499    2.0888 H         1 <0>         0.1353
     32 H12        -1.6519   -4.3710    1.0694 H         1 <0>         0.1024
     33 H13        -0.0057   -4.3975    0.3929 H         1 <0>         0.0624
     34 H14        -2.0274   -4.7311    3.5662 H         1 <0>         0.1970
     35 H15         3.9027   -4.6049    2.3497 H         1 <0>         0.1415
     36 H16         6.2456   -4.9426    3.0161 H         1 <0>         0.1404
     37 H17         6.7837   -5.7373    5.2812 H         1 <0>         0.1431
     38 H18         4.9844   -6.1986    6.8932 H         1 <0>         0.1462
     39 H19         0.4748   -0.3293   -0.8280 H         1 <0>         0.4224
@<TRIPOS>BOND
     1    1    2 1
     2    1   21 1
     3    1   22 1
     4    1   23 1
     5    2    7 1
     6    2    3 1
     7    2   39 1
     8    3    4 1
     9    3   24 1
    10    3   25 1
    11    4    5 1
    12    4   26 1
    13    4   27 1
    14    5    6 1
    15    5    8 1
    16    6    7 1
    17    6   28 1
    18    6   29 1
    19    7   30 1
    20    7   31 1
    21    8    9 1
    22    8   32 1
    23    8   33 1
    24    9   13 1
    25    9   10 2
    26   10   11 1
    27   10   34 1
    28   11   12 1
    29   12   13 2
    30   12   14 1
    31   14   19 ar
    32   14   15 ar
    33   15   16 ar
    34   15   35 1
    35   16   17 ar
    36   16   36 1
    37   17   18 ar
    38   17   37 1
    39   18   19 ar
    40   18   38 1
    41   19   20 1
@<TRIPOS>MOLECULE
ZINC20221711
   36    38     0     0     0
SMALL
USER_CHARGES
1-[[2-(2-chlorophenyl)thiazol-4-yl]methyl]piperazine
@<TRIPOS>ATOM
      1 C1         -3.5517    3.0671    0.0371 C.ar      1 <0>        -0.1092
      2 C2         -3.3417    4.4350    0.0433 C.ar      1 <0>        -0.0807
      3 C3         -2.0557    4.9435    0.0386 C.ar      1 <0>        -0.1126
      4 C4         -0.9716    4.0876    0.0344 C.ar      1 <0>         0.0042
      5 C5         -1.1773    2.7065    0.0227 C.ar      1 <0>        -0.0181
      6 C6         -2.4782    2.2010    0.0270 C.ar      1 <0>        -0.0795
      7 C7         -0.0222    1.7837    0.0118 C.2       1 <0>         0.1511
      8 N1          1.2746    2.0591    0.0009 N.2       1 <0>        -0.4820
      9 C8          2.1739    1.1034   -0.0128 C.2       1 <0>         0.0365
     10 C9          1.7799   -0.1976   -0.0160 C.2       1 <0>        -0.1720
     11 S1          0.0021   -0.0041    0.0020 S.3       1 <0>         0.0458
     12 C10         3.6410    1.4478   -0.0244 C.3       1 <0>         0.1289
     13 N2          4.0775    1.6845   -1.4070 N.3       1 <0>        -0.5337
     14 C11         3.1286    2.5532   -2.1174 C.3       1 <0>         0.0265
     15 C12         3.5759    2.7102   -3.5726 C.3       1 <0>         0.0013
     16 N3          4.9316    3.2765   -3.6073 N.4       1 <0>        -0.5377
     17 C13         5.8804    2.4078   -2.8969 C.3       1 <0>         0.0023
     18 C14         5.4331    2.2508   -1.4417 C.3       1 <0>         0.0214
     19 Cl1         0.6423    4.7271    0.0364 Cl        1 <0>        -0.0438
     20 H1         -4.5587    2.6768    0.0404 H         1 <0>         0.1427
     21 H2         -4.1860    5.1084    0.0516 H         1 <0>         0.1429
     22 H3         -1.8986    6.0121    0.0429 H         1 <0>         0.1432
     23 H4         -2.6440    1.1338    0.0221 H         1 <0>         0.1371
     24 H5          2.3755   -1.0985   -0.0270 H         1 <0>         0.2025
     25 H6          3.8093    2.3555    0.5737 H         1 <0>         0.0637
     26 H7          4.2167    0.6143    0.4043 H         1 <0>         0.1053
     27 H8          2.1257    2.1023   -2.0876 H         1 <0>         0.1199
     28 H9          3.1014    3.5402   -1.6326 H         1 <0>         0.0647
     29 H10         3.5758    1.7263   -4.0644 H         1 <0>         0.1340
     30 H11         2.8828    3.3831   -4.0987 H         1 <0>         0.1351
     31 H12         5.2596    3.3787   -4.6523 H         1 <0>         0.4557
     32 H13         5.9076    1.4208   -3.3817 H         1 <0>         0.1356
     33 H14         6.8833    2.8586   -2.9266 H         1 <0>         0.1378
     34 H15         5.4323    3.2344   -0.9492 H         1 <0>         0.0610
     35 H16         6.1253    1.5775   -0.9149 H         1 <0>         0.1231
     36 H17         4.9283    4.2654   -3.1256 H         1 <0>         0.4471
@<TRIPOS>BOND
     1    1    6 ar
     2    1    2 ar
     3    1   20 1
     4    2    3 ar
     5    2   21 1
     6    3    4 ar
     7    3   22 1
     8    4    5 ar
     9    4   19 1
    10    5    6 ar
    11    5    7 1
    12    6   23 1
    13    7   11 1
    14    7    8 2
    15    8    9 1
    16    9   10 2
    17    9   12 1
    18   10   11 1
    19   10   24 1
    20   12   13 1
    21   12   25 1
    22   12   26 1
    23   13   18 1
    24   13   14 1
    25   14   15 1
    26   14   27 1
    27   14   28 1
    28   15   16 1
    29   15   29 1
    30   15   30 1
    31   16   17 1
    32   16   31 1
    33   16   36 1
    34   17   18 1
    35   17   32 1
    36   17   33 1
    37   18   34 1
    38   18   35 1
@<TRIPOS>MOLECULE
ZINC23253968
   42    44     0     0     0
SMALL
USER_CHARGES

@<TRIPOS>ATOM
      1 C1         -0.0187    1.5258    0.0104 C.3       1 <0>        -0.1887
      2 C2          0.0021   -0.0041    0.0020 C.3       1 <0>        -0.0097
      3 N1          0.7126   -0.4907    1.1921 N.4       1 <0>        -0.3873
      4 C3          2.1214   -0.0809    1.1226 C.3       1 <0>        -0.0049
      5 C4          2.8577   -0.5715    2.3712 C.3       1 <0>         0.0262
      6 N2          2.7588   -2.0357    2.4511 N.3       1 <0>        -0.5354
      7 C5          1.3531   -2.4623    2.4963 C.3       1 <0>         0.0271
      8 C6          0.6292   -1.9562    1.2467 C.3       1 <0>        -0.0019
      9 C7          3.5028   -2.5511    3.6082 C.3       1 <0>         0.1309
     10 C8          3.5867   -4.0534    3.5228 C.2       1 <0>         0.0413
     11 C9          4.6809   -4.6440    2.9732 C.2       1 <0>        -0.1988
     12 S1          4.2413   -6.3699    3.1365 S.3       1 <0>         0.0895
     13 C10         2.6525   -6.1169    3.9168 C.2       1 <0>         0.1383
     14 N3          2.6061   -4.7938    3.9837 N.2       1 <0>        -0.4973
     15 C11         1.6604   -7.1149    4.3702 C.ar      1 <0>        -0.0115
     16 C12         0.4648   -6.6979    4.9571 C.ar      1 <0>        -0.0625
     17 C13        -0.4569   -7.6340    5.3781 C.ar      1 <0>        -0.1132
     18 C14        -0.1986   -8.9843    5.2200 C.ar      1 <0>        -0.0831
     19 C15         0.9838   -9.4053    4.6393 C.ar      1 <0>        -0.1032
     20 C16         1.9128   -8.4786    4.2080 C.ar      1 <0>        -0.0225
     21 Cl1         3.3936   -9.0082    3.4728 Cl        1 <0>        -0.0310
     22 H1          1.0039    1.9031    0.0027 H         1 <0>         0.0803
     23 H2         -0.5459    1.8868   -0.8726 H         1 <0>         0.1067
     24 H3         -0.5289    1.8773    0.9072 H         1 <0>         0.0798
     25 H4         -1.0205   -0.3814    0.0098 H         1 <0>         0.1302
     26 H5          0.5123   -0.3556   -0.8948 H         1 <0>         0.1294
     27 H6          2.5825   -0.5144    0.2351 H         1 <0>         0.1370
     28 H7          2.1814    1.0061    1.0690 H         1 <0>         0.1368
     29 H8          3.9065   -0.2804    2.3128 H         1 <0>         0.1242
     30 H9          2.4055   -0.1275    3.2580 H         1 <0>         0.0615
     31 H10         1.3042   -3.5507    2.5291 H         1 <0>         0.1280
     32 H11         0.8761   -2.0494    3.3852 H         1 <0>         0.0619
     33 H12        -0.4171   -2.2594    1.2850 H         1 <0>         0.1342
     34 H13         1.0979   -2.3800    0.3586 H         1 <0>         0.1351
     35 H14         4.5084   -2.1306    3.6103 H         1 <0>         0.1023
     36 H15         2.9885   -2.2676    4.5265 H         1 <0>         0.0623
     37 H16         5.5693   -4.1953    2.5538 H         1 <0>         0.1970
     38 H17         0.2617   -5.6445    5.0816 H         1 <0>         0.1415
     39 H18        -1.3822   -7.3122    5.8327 H         1 <0>         0.1403
     40 H19        -0.9237   -9.7127    5.5518 H         1 <0>         0.1431
     41 H20         1.1793  -10.4606    4.5188 H         1 <0>         0.1462
     42 H21         0.2892   -0.0989    2.0200 H         1 <0>         0.4199
@<TRIPOS>BOND
     1    1    2 1
     2    1   22 1
     3    1   23 1
     4    1   24 1
     5    2    3 1
     6    2   25 1
     7    2   26 1
     8    3    8 1
     9    3    4 1
    10    3   42 1
    11    4    5 1
    12    4   27 1
    13    4   28 1
    14    5    6 1
    15    5   29 1
    16    5   30 1
    17    6    7 1
    18    6    9 1
    19    7    8 1
    20    7   31 1
    21    7   32 1
    22    8   33 1
    23    8   34 1
    24    9   10 1
    25    9   35 1
    26    9   36 1
    27   10   14 1
    28   10   11 2
    29   11   12 1
    30   11   37 1
    31   12   13 1
    32   13   14 2
    33   13   15 1
    34   15   20 ar
    35   15   16 ar
    36   16   17 ar
    37   16   38 1
    38   17   18 ar
    39   17   39 1
    40   18   19 ar
    41   18   40 1
    42   19   20 ar
    43   19   41 1
    44   20   21 1
@<TRIPOS>MOLECULE
ZINC23253968
   42    44     0     0     0
SMALL
USER_CHARGES

@<TRIPOS>ATOM
      1 C1         -0.0187    1.5258    0.0104 C.3       1 <0>        -0.1550
      2 C2          0.0021   -0.0041    0.0020 C.3       1 <0>         0.0501
      3 N1         -1.3761   -0.5125    0.0124 N.3       1 <0>        -0.5392
      4 C3         -2.0491   -0.1842    1.2771 C.3       1 <0>         0.0224
      5 C4         -3.4967   -0.6776    1.2242 C.3       1 <0>        -0.0018
      6 N2         -3.5114   -2.1298    1.0045 N.4       1 <0>        -0.3843
      7 C5         -2.8577   -2.4400   -0.2738 C.3       1 <0>         0.0016
      8 C6         -1.4049   -1.9613   -0.2333 C.3       1 <0>         0.0273
      9 C7         -4.9008   -2.6057    0.9718 C.3       1 <0>         0.0767
     10 C8         -4.9146   -4.1092    0.8696 C.2       1 <0>        -0.0091
     11 C9         -5.0287   -4.8669    1.9924 C.2       1 <0>        -0.2052
     12 S1         -4.9902   -6.5100    1.2870 S.3       1 <0>         0.1372
     13 C10        -4.8267   -6.0095   -0.4217 C.2       1 <0>         0.1600
     14 N3         -4.8218   -4.6891   -0.3041 N.2       1 <0>        -0.4990
     15 C11        -4.7290   -6.8436   -1.6385 C.ar      1 <0>        -0.0259
     16 C12        -4.5991   -6.2429   -2.8915 C.ar      1 <0>        -0.0555
     17 C13        -4.5084   -7.0267   -4.0230 C.ar      1 <0>        -0.1118
     18 C14        -4.5459   -8.4061   -3.9184 C.ar      1 <0>        -0.0739
     19 C15        -4.6745   -9.0088   -2.6803 C.ar      1 <0>        -0.1027
     20 C16        -4.7605   -8.2361   -1.5387 C.ar      1 <0>        -0.0188
     21 Cl1        -4.9145   -8.9939    0.0156 Cl        1 <0>        -0.0292
     22 H1          1.0039    1.9031    0.0027 H         1 <0>         0.0709
     23 H2         -0.5459    1.8868   -0.8726 H         1 <0>         0.0691
     24 H3         -0.5289    1.8773    0.9072 H         1 <0>         0.0559
     25 H4          0.5123   -0.3556   -0.8948 H         1 <0>         0.0882
     26 H5          0.5293   -0.3651    0.8851 H         1 <0>         0.0452
     27 H6         -1.5291   -0.6702    2.1027 H         1 <0>         0.0593
     28 H7         -2.0381    0.8956    1.4253 H         1 <0>         0.1261
     29 H8         -3.9935   -0.4477    2.1667 H         1 <0>         0.1362
     30 H9         -4.0201   -0.1811    0.4071 H         1 <0>         0.1391
     31 H10        -2.8809   -3.5167   -0.4418 H         1 <0>         0.1353
     32 H11        -3.3844   -1.9346   -1.0833 H         1 <0>         0.1382
     33 H12        -0.9238   -2.1780   -1.1872 H         1 <0>         0.1219
     34 H13        -0.8743   -2.4766    0.5673 H         1 <0>         0.0567
     35 H14        -5.4115   -2.2989    1.8846 H         1 <0>         0.1437
     36 H15        -5.4111   -2.1782    0.1087 H         1 <0>         0.1429
     37 H16        -5.1177   -4.5614    3.0245 H         1 <0>         0.2055
     38 H17        -4.5700   -5.1665   -2.9751 H         1 <0>         0.1446
     39 H18        -4.4082   -6.5626   -4.9930 H         1 <0>         0.1443
     40 H19        -4.4749   -9.0147   -4.8077 H         1 <0>         0.1464
     41 H20        -4.7031  -10.0858   -2.6055 H         1 <0>         0.1489
     42 H21        -3.0168   -2.5884    1.7549 H         1 <0>         0.4176
@<TRIPOS>BOND
     1    1    2 1
     2    1   22 1
     3    1   23 1
     4    1   24 1
     5    2    3 1
     6    2   25 1
     7    2   26 1
     8    3    8 1
     9    3    4 1
    10    4    5 1
    11    4   27 1
    12    4   28 1
    13    5    6 1
    14    5   29 1
    15    5   30 1
    16    6    7 1
    17    6    9 1
    18    6   42 1
    19    7    8 1
    20    7   31 1
    21    7   32 1
    22    8   33 1
    23    8   34 1
    24    9   10 1
    25    9   35 1
    26    9   36 1
    27   10   14 1
    28   10   11 2
    29   11   12 1
    30   11   37 1
    31   12   13 1
    32   13   14 2
    33   13   15 1
    34   15   20 ar
    35   15   16 ar
    36   16   17 ar
    37   16   38 1
    38   17   18 ar
    39   17   39 1
    40   18   19 ar
    41   18   40 1
    42   19   20 ar
    43   19   41 1
    44   20   21 1
@<TRIPOS>MOLECULE
ZINC23253968
   41    43     0     0     0
SMALL
USER_CHARGES

@<TRIPOS>ATOM
      1 C1         -0.0187    1.5258    0.0104 C.3       1 <0>        -0.1493
      2 C2          0.0021   -0.0041    0.0020 C.3       1 <0>         0.0503
      3 N1         -1.3761   -0.5125    0.0124 N.3       1 <0>        -0.5410
      4 C3         -2.0498   -0.1822    1.2760 C.3       1 <0>         0.0554
      5 C4         -3.5032   -0.6579    1.2157 C.3       1 <0>         0.0576
      6 N2         -3.5320   -2.1065    0.9699 N.3       1 <0>        -0.5361
      7 C5         -2.8583   -2.4369   -0.2936 C.3       1 <0>         0.0616
      8 C6         -1.4048   -1.9611   -0.2333 C.3       1 <0>         0.0571
      9 C7         -4.9101   -2.6149    0.9804 C.3       1 <0>         0.1262
     10 C8         -4.8897   -4.1218    0.9721 C.2       1 <0>         0.0578
     11 C9         -4.9770   -4.8103    2.1410 C.2       1 <0>        -0.1979
     12 S1         -4.9060   -6.4929    1.5390 S.3       1 <0>         0.0614
     13 C10        -4.7682   -6.0966   -0.1991 C.2       1 <0>         0.1293
     14 N3         -4.7931   -4.7716   -0.1641 N.2       1 <0>        -0.4826
     15 C11        -4.6611   -7.0026   -1.3625 C.ar      1 <0>        -0.0012
     16 C12        -4.5555   -6.4786   -2.6517 C.ar      1 <0>        -0.0620
     17 C13        -4.4559   -7.3292   -3.7330 C.ar      1 <0>        -0.1127
     18 C14        -4.4605   -8.6999   -3.5424 C.ar      1 <0>        -0.0903
     19 C15        -4.5648   -9.2268   -2.2680 C.ar      1 <0>        -0.1061
     20 C16        -4.6594   -8.3865   -1.1759 C.ar      1 <0>        -0.0245
     21 Cl1        -4.7830   -9.0490    0.4239 Cl        1 <0>        -0.0357
     22 H1          1.0039    1.9031    0.0027 H         1 <0>         0.0594
     23 H2         -0.5459    1.8868   -0.8726 H         1 <0>         0.0629
     24 H3         -0.5289    1.8773    0.9072 H         1 <0>         0.0544
     25 H4          0.5123   -0.3556   -0.8948 H         1 <0>         0.0740
     26 H5          0.5293   -0.3651    0.8851 H         1 <0>         0.0332
     27 H6         -1.5387   -0.6782    2.1011 H         1 <0>         0.0415
     28 H7         -2.0263    0.8967    1.4294 H         1 <0>         0.0829
     29 H8         -3.9968   -0.4398    2.1627 H         1 <0>         0.0804
     30 H9         -4.0216   -0.1416    0.4077 H         1 <0>         0.0444
     31 H10        -2.8817   -3.5158   -0.4470 H         1 <0>         0.0857
     32 H11        -3.3693   -1.9408   -1.1188 H         1 <0>         0.0431
     33 H12        -0.9112   -2.1792   -1.1804 H         1 <0>         0.0781
     34 H13        -0.8865   -2.4774    0.5747 H         1 <0>         0.0395
     35 H14        -5.4203   -2.2634    1.8772 H         1 <0>         0.0902
     36 H15        -5.4373   -2.2539    0.0973 H         1 <0>         0.0519
     37 H16        -5.0645   -4.4430    3.1529 H         1 <0>         0.1955
     38 H17        -4.5522   -5.4091   -2.8024 H         1 <0>         0.1446
     39 H18        -4.3746   -6.9245   -4.7310 H         1 <0>         0.1390
     40 H19        -4.3826   -9.3611   -4.3927 H         1 <0>         0.1396
     41 H20        -4.5677  -10.2975   -2.1260 H         1 <0>         0.1426
@<TRIPOS>BOND
     1    1    2 1
     2    1   22 1
     3    1   23 1
     4    1   24 1
     5    2    3 1
     6    2   25 1
     7    2   26 1
     8    3    8 1
     9    3    4 1
    10    4    5 1
    11    4   27 1
    12    4   28 1
    13    5    6 1
    14    5   29 1
    15    5   30 1
    16    6    7 1
    17    6    9 1
    18    7    8 1
    19    7   31 1
    20    7   32 1
    21    8   33 1
    22    8   34 1
    23    9   10 1
    24    9   35 1
    25    9   36 1
    26   10   14 1
    27   10   11 2
    28   11   12 1
    29   11   37 1
    30   12   13 1
    31   13   14 2
    32   13   15 1
    33   15   20 ar
    34   15   16 ar
    35   16   17 ar
    36   16   38 1
    37   17   18 ar
    38   17   39 1
    39   18   19 ar
    40   18   40 1
    41   19   20 ar
    42   19   41 1
    43   20   21 1
@<TRIPOS>MOLECULE
ZINC70304038
   38    39     0     0     0
SMALL
USER_CHARGES

@<TRIPOS>ATOM
      1 C1         -0.0178    1.4648    0.0101 C.3       1 <0>        -0.0455
      2 N1          0.0021   -0.0041    0.0020 N.4       1 <0>        -0.5077
      3 C2          0.6897   -0.4778   -1.2066 C.3       1 <0>        -0.0114
      4 C3          0.7104   -2.0077   -1.2150 C.3       1 <0>         0.0246
      5 N2          1.3980   -2.4814   -2.4236 N.3       1 <0>        -0.5297
      6 C4          0.6373   -2.1356   -3.6318 C.3       1 <0>         0.0129
      7 C5          1.6477   -3.9274   -2.3547 C.3       1 <0>         0.1298
      8 C6          2.5613   -4.3337   -3.4821 C.2       1 <0>         0.0475
      9 C7          3.9014   -4.4261   -3.2730 C.2       1 <0>        -0.2038
     10 S1          4.4552   -4.9277   -4.8979 S.3       1 <0>         0.0837
     11 C8          2.8458   -4.9595   -5.6762 C.2       1 <0>         0.1399
     12 N3          2.0640   -4.6043   -4.6661 N.2       1 <0>        -0.4924
     13 C9          2.4838   -5.2966   -7.0694 C.ar      1 <0>        -0.0108
     14 C10         1.1499   -5.2522   -7.4774 C.ar      1 <0>        -0.0612
     15 C11         0.8186   -5.5678   -8.7787 C.ar      1 <0>        -0.1130
     16 C12         1.8052   -5.9281   -9.6797 C.ar      1 <0>        -0.0839
     17 C13         3.1293   -5.9745   -9.2830 C.ar      1 <0>        -0.1040
     18 C14         3.4756   -5.6552   -7.9846 C.ar      1 <0>        -0.0224
     19 Cl1         5.1388   -5.7068   -7.4897 Cl        1 <0>        -0.0325
     20 H1          1.0047    1.8421    0.0024 H         1 <0>         0.1247
     21 H2         -0.5450    1.8259   -0.8730 H         1 <0>         0.1232
     22 H3         -0.5280    1.8163    0.9069 H         1 <0>         0.1277
     23 H4          0.4901   -0.3383    0.8195 H         1 <0>         0.4310
     24 H5          0.1625   -0.1167   -2.0897 H         1 <0>         0.1315
     25 H6          1.7123   -0.1005   -1.2143 H         1 <0>         0.1412
     26 H7          1.2376   -2.3687   -0.3319 H         1 <0>         0.0981
     27 H8         -0.3122   -2.3849   -1.2073 H         1 <0>         0.0589
     28 H9          0.5269   -1.0530   -3.6942 H         1 <0>         0.0647
     29 H10         1.1687   -2.4979   -4.5118 H         1 <0>         0.0906
     30 H11        -0.3481   -2.5992   -3.5859 H         1 <0>         0.0376
     31 H12         2.1170   -4.1700   -1.4013 H         1 <0>         0.0948
     32 H13         0.7028   -4.4638   -2.4414 H         1 <0>         0.0595
     33 H14         4.4732   -4.2461   -2.3746 H         1 <0>         0.1954
     34 H15         0.3785   -4.9715   -6.7755 H         1 <0>         0.1425
     35 H16        -0.2135   -5.5341   -9.0951 H         1 <0>         0.1404
     36 H17         1.5399   -6.1746  -10.6972 H         1 <0>         0.1427
     37 H18         3.8945   -6.2564   -9.9911 H         1 <0>         0.1456
     38 H19        -0.9445   -0.3533    0.0092 H         1 <0>         0.4296
@<TRIPOS>BOND
     1    1    2 1
     2    1   20 1
     3    1   21 1
     4    1   22 1
     5    2    3 1
     6    2   23 1
     7    2   38 1
     8    3    4 1
     9    3   24 1
    10    3   25 1
    11    4    5 1
    12    4   26 1
    13    4   27 1
    14    5    6 1
    15    5    7 1
    16    6   28 1
    17    6   29 1
    18    6   30 1
    19    7    8 1
    20    7   31 1
    21    7   32 1
    22    8   12 1
    23    8    9 2
    24    9   10 1
    25    9   33 1
    26   10   11 1
    27   11   12 2
    28   11   13 1
    29   13   18 ar
    30   13   14 ar
    31   14   15 ar
    32   14   34 1
    33   15   16 ar
    34   15   35 1
    35   16   17 ar
    36   16   36 1
    37   17   18 ar
    38   17   37 1
    39   18   19 1
@<TRIPOS>MOLECULE
ZINC76784258
   36    37     0     0     0
SMALL
USER_CHARGES

@<TRIPOS>ATOM
      1 C1         -0.0187    1.5258    0.0104 C.3       1 <0>        -0.1561
      2 C2          0.0021   -0.0041    0.0020 C.3       1 <0>        -0.1499
      3 C3         -1.4333   -0.5336    0.0129 C.3       1 <0>        -0.0157
      4 N1         -1.4134   -2.0025    0.0048 N.4       1 <0>        -0.5004
      5 C4         -2.7915   -2.5110    0.0152 C.3       1 <0>         0.1167
      6 H1         -3.3444   -2.0792   -0.8190 H         1 <0>         0.1507
      7 C5         -3.4685   -2.1226    1.3312 C.3       1 <0>        -0.1798
      8 C6         -2.7742   -4.0121   -0.1168 C.2       1 <0>         0.0027
      9 C7         -3.8495   -4.6624   -0.6352 C.2       1 <0>        -0.1759
     10 S1         -3.2823   -6.3565   -0.5518 S.3       1 <0>         0.1056
     11 C8         -1.6792   -6.0144    0.1624 C.2       1 <0>         0.1804
     12 N2         -1.7187   -4.6932    0.2633 N.2       1 <0>        -0.5323
     13 C9         -0.5984   -6.9521    0.5349 C.ar      1 <0>        -0.0362
     14 C10         0.5869   -6.4693    1.0913 C.ar      1 <0>        -0.0538
     15 C11         1.5916   -7.3489    1.4373 C.ar      1 <0>        -0.1112
     16 C12         1.4259   -8.7085    1.2331 C.ar      1 <0>        -0.0066
     17 C13         0.2522   -9.1933    0.6809 C.ar      1 <0>        -0.1046
     18 C14        -0.7619   -8.3238    0.3368 C.ar      1 <0>        -0.0707
     19 Cl1         2.6949   -9.8094    1.6705 Cl        1 <0>        -0.0427
     20 H2          1.0039    1.9031    0.0027 H         1 <0>         0.0777
     21 H3         -0.5459    1.8868   -0.8726 H         1 <0>         0.0671
     22 H4         -0.5289    1.8773    0.9072 H         1 <0>         0.0672
     23 H5          0.5123   -0.3556   -0.8948 H         1 <0>         0.0861
     24 H6          0.5293   -0.3651    0.8851 H         1 <0>         0.0866
     25 H7         -1.9435   -0.1821    0.9097 H         1 <0>         0.1335
     26 H8         -1.9605   -0.1726   -0.8702 H         1 <0>         0.1319
     27 H9         -0.9411   -2.3279   -0.8254 H         1 <0>         0.4293
     28 H10        -2.9156   -2.5543    2.1655 H         1 <0>         0.0843
     29 H11        -3.4811   -1.0368    1.4267 H         1 <0>         0.0894
     30 H12        -4.4911   -2.4999    1.3389 H         1 <0>         0.1068
     31 H13        -4.7868   -4.2660   -0.9968 H         1 <0>         0.2107
     32 H14         0.7175   -5.4091    1.2504 H         1 <0>         0.1410
     33 H15         2.5093   -6.9765    1.8680 H         1 <0>         0.1471
     34 H16         0.1288  -10.2546    0.5233 H         1 <0>         0.1497
     35 H17        -1.6788   -8.7034   -0.0894 H         1 <0>         0.1391
     36 H18        -0.9254   -2.3367    0.8222 H         1 <0>         0.4325
@<TRIPOS>BOND
     1    1    2 1
     2    1   20 1
     3    1   21 1
     4    1   22 1
     5    2    3 1
     6    2   23 1
     7    2   24 1
     8    3    4 1
     9    3   25 1
    10    3   26 1
    11    4    5 1
    12    4   27 1
    13    4   36 1
    14    5    6 1
    15    5    7 1
    16    5    8 1
    17    7   28 1
    18    7   29 1
    19    7   30 1
    20    8   12 1
    21    8    9 2
    22    9   10 1
    23    9   31 1
    24   10   11 1
    25   11   12 2
    26   11   13 1
    27   13   18 ar
    28   13   14 ar
    29   14   15 ar
    30   14   32 1
    31   15   16 ar
    32   15   33 1
    33   16   17 ar
    34   16   19 1
    35   17   18 ar
    36   17   34 1
    37   18   35 1
@<TRIPOS>MOLECULE
ZINC49857638
   40    41     0     0     0
SMALL
USER_CHARGES

@<TRIPOS>ATOM
      1 C1          0.9293    0.0437    0.2950 C.3       1 <0>        -0.1854
      2 C2         -0.3313    0.3147   -0.5287 C.3       1 <0>         0.0166
      3 C3         -0.0605   -0.0132   -1.9984 C.3       1 <0>        -0.1730
      4 N1         -1.4297   -0.5258   -0.0338 N.4       1 <0>        -0.3781
      5 C4         -2.6086   -0.3462   -0.8917 C.3       1 <0>        -0.0148
      6 C5         -3.1371    1.0816   -0.7399 C.3       1 <0>         0.0507
      7 O1         -2.1891    2.0010   -1.2857 O.3       1 <0>        -0.5707
      8 C6         -1.0168   -1.9353   -0.0578 C.3       1 <0>         0.0636
      9 C7         -0.4320   -2.3103    1.2796 C.2       1 <0>        -0.0008
     10 C8         -1.2204   -2.8722    2.2342 C.2       1 <0>        -0.1854
     11 S1         -0.0338   -3.0933    3.5539 S.3       1 <0>         0.0850
     12 C9          1.3787   -2.4152    2.6924 C.2       1 <0>         0.1809
     13 N2          0.8402   -2.0999    1.5228 N.2       1 <0>        -0.4949
     14 C10         2.7731   -2.2544    3.1574 C.ar      1 <0>        -0.0415
     15 C11         3.7315   -1.6880    2.3160 C.ar      1 <0>        -0.0649
     16 C12         5.0308   -1.5408    2.7559 C.ar      1 <0>        -0.1202
     17 C13         5.3845   -1.9538    4.0281 C.ar      1 <0>        -0.0838
     18 C14         4.4393   -2.5165    4.8671 C.ar      1 <0>        -0.1146
     19 C15         3.1350   -2.6632    4.4417 C.ar      1 <0>        -0.0847
     20 H1          1.6987    0.7693    0.0311 H         1 <0>         0.0878
     21 H2          0.6958    0.1314    1.3561 H         1 <0>         0.0645
     22 H3          1.2914   -0.9626    0.0846 H         1 <0>         0.1158
     23 H4         -0.6072    1.3651   -0.4357 H         1 <0>         0.1550
     24 H5          0.1111   -1.0842   -2.1060 H         1 <0>         0.0711
     25 H6         -0.9208    0.2792   -2.6004 H         1 <0>         0.0841
     26 H7          0.8212    0.5317   -2.3358 H         1 <0>         0.0998
     27 H8         -2.3317   -0.5225   -1.9311 H         1 <0>         0.1425
     28 H9         -3.3836   -1.0538   -0.5971 H         1 <0>         0.1419
     29 H10        -4.0837    1.1771   -1.2718 H         1 <0>         0.0967
     30 H11        -3.2902    1.3019    0.3166 H         1 <0>         0.0691
     31 H12        -2.4228    2.9303   -1.1559 H         1 <0>         0.4035
     32 H13        -1.8828   -2.5641   -0.2648 H         1 <0>         0.1411
     33 H14        -0.2675   -2.0812   -0.8358 H         1 <0>         0.1466
     34 H15        -2.2719   -3.1168    2.2040 H         1 <0>         0.2081
     35 H16         3.4568   -1.3659    1.3224 H         1 <0>         0.1339
     36 H17         5.7735   -1.1026    2.1057 H         1 <0>         0.1359
     37 H18         6.4031   -1.8367    4.3676 H         1 <0>         0.1352
     38 H19         4.7218   -2.8372    5.8589 H         1 <0>         0.1375
     39 H20         2.3969   -3.0979    5.0994 H         1 <0>         0.1280
     40 H21        -1.6581   -0.2582    0.9119 H         1 <0>         0.4178
@<TRIPOS>BOND
     1    1    2 1
     2    1   20 1
     3    1   21 1
     4    1   22 1
     5    2    3 1
     6    2    4 1
     7    2   23 1
     8    3   24 1
     9    3   25 1
    10    3   26 1
    11    4    5 1
    12    4    8 1
    13    4   40 1
    14    5    6 1
    15    5   27 1
    16    5   28 1
    17    6    7 1
    18    6   29 1
    19    6   30 1
    20    7   31 1
    21    8    9 1
    22    8   32 1
    23    8   33 1
    24    9   13 1
    25    9   10 2
    26   10   11 1
    27   10   34 1
    28   11   12 1
    29   12   13 2
    30   12   14 1
    31   14   19 ar
    32   14   15 ar
    33   15   16 ar
    34   15   35 1
    35   16   17 ar
    36   16   36 1
    37   17   18 ar
    38   17   37 1
    39   18   19 ar
    40   18   38 1
    41   19   39 1
@<TRIPOS>MOLECULE
ZINC03242449
   36    38     0     0     0
SMALL
USER_CHARGES
3-methyl-N-[(2-phenylthiazol-4-yl)methyl]aniline
@<TRIPOS>ATOM
      1 C1         -2.5137    0.9757    0.0188 C.3       1 <0>        -0.1169
      2 C2         -1.2205    1.7494    0.0174 C.ar      1 <0>        -0.0389
      3 C3         -0.0126    1.0758    0.0080 C.ar      1 <0>        -0.1799
      4 C4          1.1762    1.7818    0.0004 C.ar      1 <0>        -0.0681
      5 C5          1.1611    3.1630    0.0080 C.ar      1 <0>        -0.2044
      6 C6         -0.0501    3.8425    0.0232 C.ar      1 <0>         0.2208
      7 C7         -1.2428    3.1300    0.0307 C.ar      1 <0>        -0.1962
      8 N1         -0.0691    5.2391    0.0304 N.pl3     1 <0>        -0.7426
      9 C8          1.1896    5.9888    0.0219 C.3       1 <0>         0.2001
     10 C9          0.8941    7.4665    0.0322 C.2       1 <0>         0.0400
     11 C10         0.8676    8.1475    1.2087 C.2       1 <0>        -0.1812
     12 S1          0.4857    9.7952    0.6276 S.3       1 <0>         0.0225
     13 C11         0.3942    9.3964   -1.1129 C.2       1 <0>         0.1607
     14 N2          0.6567    8.0972   -1.0938 N.2       1 <0>        -0.4873
     15 C12         0.1033   10.2782   -2.2638 C.ar      1 <0>        -0.0221
     16 C13         0.0854    9.7577   -3.5584 C.ar      1 <0>        -0.0685
     17 C14        -0.1919   10.5847   -4.6273 C.ar      1 <0>        -0.1204
     18 C15        -0.4406   11.9297   -4.4189 C.ar      1 <0>        -0.0972
     19 C16        -0.4191   12.4530   -3.1384 C.ar      1 <0>        -0.1180
     20 C17        -0.1488   11.6355   -2.0603 C.ar      1 <0>        -0.0909
     21 H1         -2.8208    0.7833    1.0468 H         1 <0>         0.0710
     22 H2         -3.2848    1.5559   -0.4882 H         1 <0>         0.0649
     23 H3         -2.3710    0.0284   -0.5012 H         1 <0>         0.0672
     24 H4          0.0021   -0.0041    0.0020 H         1 <0>         0.1174
     25 H5          2.1177    1.2527   -0.0118 H         1 <0>         0.1204
     26 H6          2.0900    3.7138    0.0017 H         1 <0>         0.1187
     27 H7         -2.1863    3.6554    0.0425 H         1 <0>         0.1172
     28 H8         -0.9156    5.7126    0.0410 H         1 <0>         0.3994
     29 H9          1.7733    5.7288    0.9050 H         1 <0>         0.0764
     30 H10         1.7560    5.7378   -0.8749 H         1 <0>         0.0762
     31 H11         1.0328    7.7921    2.2151 H         1 <0>         0.2023
     32 H12         0.2840    8.7089   -3.7228 H         1 <0>         0.1357
     33 H13        -0.2109   10.1822   -5.6293 H         1 <0>         0.1323
     34 H14        -0.6527   12.5737   -5.2595 H         1 <0>         0.1299
     35 H15        -0.6140   13.5037   -2.9824 H         1 <0>         0.1326
     36 H16        -0.1327   12.0452   -1.0612 H         1 <0>         0.1269
@<TRIPOS>BOND
     1    1    2 1
     2    1   21 1
     3    1   22 1
     4    1   23 1
     5    2    7 ar
     6    2    3 ar
     7    3    4 ar
     8    3   24 1
     9    4    5 ar
    10    4   25 1
    11    5    6 ar
    12    5   26 1
    13    6    7 ar
    14    6    8 1
    15    7   27 1
    16    8    9 1
    17    8   28 1
    18    9   10 1
    19    9   29 1
    20    9   30 1
    21   10   14 1
    22   10   11 2
    23   11   12 1
    24   11   31 1
    25   12   13 1
    26   13   14 2
    27   13   15 1
    28   15   20 ar
    29   15   16 ar
    30   16   17 ar
    31   16   32 1
    32   17   18 ar
    33   17   33 1
    34   18   19 ar
    35   18   34 1
    36   19   20 ar
    37   19   35 1
    38   20   36 1
@<TRIPOS>MOLECULE
ZINC76784453
   33    34     0     0     0
SMALL
USER_CHARGES

@<TRIPOS>ATOM
      1 C1         -0.0187    1.5258    0.0104 C.3       1 <0>        -0.1881
      2 C2          0.0021   -0.0041    0.0020 C.3       1 <0>        -0.0151
      3 N1          0.7126   -0.4907    1.1921 N.4       1 <0>        -0.5006
      4 C3          0.7325   -1.9595    1.1840 C.3       1 <0>         0.1166
      5 H1          1.1628   -2.3119    0.2466 H         1 <0>         0.1502
      6 C4         -0.6962   -2.4897    1.3206 C.3       1 <0>        -0.1795
      7 C5          1.5652   -2.4570    2.3374 C.2       1 <0>         0.0032
      8 C6          2.1573   -3.6792    2.2725 C.2       1 <0>        -0.1799
      9 S1          2.9802   -3.7317    3.8595 S.3       1 <0>         0.0979
     10 C7          2.4473   -2.1247    4.4343 C.2       1 <0>         0.1871
     11 N2          1.7246   -1.7090    3.4037 N.2       1 <0>        -0.5364
     12 C8          2.7387   -1.4412    5.7127 C.ar      1 <0>        -0.0421
     13 C9          2.2110   -0.1744    5.9663 C.ar      1 <0>        -0.0664
     14 C10         2.4867    0.4580    7.1610 C.ar      1 <0>        -0.1203
     15 C11         3.2850   -0.1609    8.1066 C.ar      1 <0>        -0.0832
     16 C12         3.8117   -1.4165    7.8612 C.ar      1 <0>        -0.1132
     17 C13         3.5380   -2.0624    6.6732 C.ar      1 <0>        -0.0836
     18 H2          1.0039    1.9031    0.0027 H         1 <0>         0.0803
     19 H3         -0.5459    1.8868   -0.8726 H         1 <0>         0.1075
     20 H4         -0.5289    1.8773    0.9072 H         1 <0>         0.0808
     21 H5         -1.0205   -0.3814    0.0098 H         1 <0>         0.1327
     22 H6          0.5123   -0.3556   -0.8948 H         1 <0>         0.1311
     23 H7          1.6592   -0.1414    1.1850 H         1 <0>         0.4291
     24 H8         -1.1265   -2.1373    2.2580 H         1 <0>         0.0839
     25 H9         -1.2985   -2.1299    0.4864 H         1 <0>         0.0892
     26 H10        -0.6814   -3.5796    1.3146 H         1 <0>         0.1064
     27 H11         2.1362   -4.4147    1.4819 H         1 <0>         0.2096
     28 H12         1.5883    0.3100    5.2287 H         1 <0>         0.1308
     29 H13         2.0789    1.4383    7.3585 H         1 <0>         0.1360
     30 H14         3.4982    0.3385    9.0401 H         1 <0>         0.1360
     31 H15         4.4343   -1.8940    8.6032 H         1 <0>         0.1386
     32 H16         3.9455   -3.0448    6.4850 H         1 <0>         0.1291
     33 H17         0.2403   -0.1653    2.0223 H         1 <0>         0.4324
@<TRIPOS>BOND
     1    1    2 1
     2    1   18 1
     3    1   19 1
     4    1   20 1
     5    2    3 1
     6    2   21 1
     7    2   22 1
     8    3    4 1
     9    3   23 1
    10    3   33 1
    11    4    5 1
    12    4    6 1
    13    4    7 1
    14    6   24 1
    15    6   25 1
    16    6   26 1
    17    7   11 1
    18    7    8 2
    19    8    9 1
    20    8   27 1
    21    9   10 1
    22   10   11 2
    23   10   12 1
    24   12   17 ar
    25   12   13 ar
    26   13   14 ar
    27   13   28 1
    28   14   15 ar
    29   14   29 1
    30   15   16 ar
    31   15   30 1
    32   16   17 ar
    33   16   31 1
    34   17   32 1
@<TRIPOS>MOLECULE
ZINC76784451
   33    34     0     0     0
SMALL
USER_CHARGES

@<TRIPOS>ATOM
      1 C1         -0.0187    1.5258    0.0104 C.3       1 <0>        -0.1881
      2 C2          0.0021   -0.0041    0.0020 C.3       1 <0>        -0.0151
      3 N1          0.7126   -0.4907    1.1921 N.4       1 <0>        -0.5006
      4 C3          0.7325   -1.9595    1.1840 C.3       1 <0>         0.1166
      5 H1         -0.2871   -2.3363    1.1022 H         1 <0>         0.1502
      6 C4          1.5554   -2.4519   -0.0082 C.3       1 <0>        -0.1795
      7 C5          1.3520   -2.4606    2.4632 C.2       1 <0>         0.0031
      8 C6          1.0475   -3.7019    2.9267 C.2       1 <0>        -0.1798
      9 S1          2.0362   -3.7496    4.4163 S.3       1 <0>         0.0979
     10 C7          2.7450   -2.1156    4.2593 C.2       1 <0>         0.1870
     11 N2          2.1903   -1.7015    3.1288 N.2       1 <0>        -0.5363
     12 C8          3.6976   -1.4165    5.1484 C.ar      1 <0>        -0.0421
     13 C9          4.1249   -0.1243    4.8400 C.ar      1 <0>        -0.0665
     14 C10         5.0138    0.5224    5.6736 C.ar      1 <0>        -0.1203
     15 C11         5.4820   -0.1077    6.8129 C.ar      1 <0>        -0.0833
     16 C12         5.0628   -1.3889    7.1241 C.ar      1 <0>        -0.1132
     17 C13         4.1689   -2.0440    6.3023 C.ar      1 <0>        -0.0836
     18 H2          1.0039    1.9031    0.0027 H         1 <0>         0.0808
     19 H3         -0.5459    1.8868   -0.8726 H         1 <0>         0.1075
     20 H4         -0.5289    1.8773    0.9072 H         1 <0>         0.0803
     21 H5         -1.0205   -0.3814    0.0098 H         1 <0>         0.1311
     22 H6          0.5123   -0.3556   -0.8948 H         1 <0>         0.1327
     23 H7          1.6592   -0.1414    1.1850 H         1 <0>         0.4324
     24 H8          2.5749   -2.0751    0.0737 H         1 <0>         0.0839
     25 H9          1.5702   -3.5418   -0.0141 H         1 <0>         0.1064
     26 H10         1.1073   -2.0895   -0.9334 H         1 <0>         0.0892
     27 H11         0.3903   -4.4514    2.5108 H         1 <0>         0.2096
     28 H12         3.7607    0.3682    3.9505 H         1 <0>         0.1308
     29 H13         5.3453    1.5224    5.4361 H         1 <0>         0.1360
     30 H14         6.1781    0.4028    7.4620 H         1 <0>         0.1360
     31 H15         5.4322   -1.8753    8.0147 H         1 <0>         0.1386
     32 H16         3.8383   -3.0422    6.5490 H         1 <0>         0.1291
     33 H17         0.2403   -0.1653    2.0223 H         1 <0>         0.4291
@<TRIPOS>BOND
     1    1    2 1
     2    1   18 1
     3    1   19 1
     4    1   20 1
     5    2    3 1
     6    2   21 1
     7    2   22 1
     8    3    4 1
     9    3   23 1
    10    3   33 1
    11    4    5 1
    12    4    6 1
    13    4    7 1
    14    6   24 1
    15    6   25 1
    16    6   26 1
    17    7   11 1
    18    7    8 2
    19    8    9 1
    20    8   27 1
    21    9   10 1
    22   10   11 2
    23   10   12 1
    24   12   17 ar
    25   12   13 ar
    26   13   14 ar
    27   13   28 1
    28   14   15 ar
    29   14   29 1
    30   15   16 ar
    31   15   30 1
    32   16   17 ar
    33   16   31 1
    34   17   32 1
@<TRIPOS>MOLECULE
ZINC41010149
   37    39     0     0     0
SMALL
USER_CHARGES

@<TRIPOS>ATOM
      1 C1         -0.0184    1.5028    0.0103 C.3       1 <0>        -0.1289
      2 C2          0.0021   -0.0041    0.0020 C.ar      1 <0>        -0.0467
      3 C3          0.0057   -0.6863   -1.2018 C.ar      1 <0>        -0.1192
      4 C4          0.0249   -2.0656   -1.2163 C.ar      1 <0>        -0.0637
      5 C5          0.0405   -2.7729   -0.0133 C.ar      1 <0>        -0.0474
      6 C6          0.0368   -2.0789    1.1972 C.ar      1 <0>        -0.0805
      7 C7          0.0229   -0.6991    1.1979 C.ar      1 <0>        -0.0814
      8 C8          0.0250    0.0522    2.5042 C.3       1 <0>        -0.1234
      9 C9          0.0606   -4.2514   -0.0214 C.2       1 <0>         0.1911
     10 N1          0.0722   -5.0870   -1.0504 N.2       1 <0>        -0.5116
     11 C10         0.0898   -6.3870   -0.8724 C.2       1 <0>        -0.0083
     12 C11         0.0964   -6.8982    0.3874 C.2       1 <0>        -0.1853
     13 S1          0.0837   -5.3936    1.3541 S.3       1 <0>         0.0886
     14 C12         0.1021   -7.3116   -2.0623 C.3       1 <0>         0.0834
     15 N2         -1.2747   -7.5349   -2.5232 N.4       1 <0>        -0.4783
     16 C13        -1.2627   -8.4363   -3.6831 C.3       1 <0>        -0.0839
     17 C14        -1.7646   -7.8785   -5.0165 C.3       1 <0>        -0.1535
     18 C15        -2.6140   -8.8876   -4.2411 C.3       1 <0>        -0.1541
     19 H1          1.0042    1.8801    0.0026 H         1 <0>         0.0815
     20 H2         -0.5455    1.8639   -0.8728 H         1 <0>         0.0744
     21 H3         -0.5286    1.8543    0.9071 H         1 <0>         0.0768
     22 H4         -0.0068   -0.1378   -2.1321 H         1 <0>         0.1362
     23 H5          0.0273   -2.5969   -2.1566 H         1 <0>         0.1339
     24 H6          0.0489   -2.6204    2.1315 H         1 <0>         0.1282
     25 H7         -1.0020    0.2194    2.8289 H         1 <0>         0.0782
     26 H8          0.5540   -0.5310    3.2579 H         1 <0>         0.0715
     27 H9          0.5246    1.0118    2.3707 H         1 <0>         0.0771
     28 H10         0.1097   -7.9276    0.7138 H         1 <0>         0.2099
     29 H11         0.6858   -6.8622   -2.8657 H         1 <0>         0.1450
     30 H12         0.5489   -8.2642   -1.7776 H         1 <0>         0.1455
     31 H13        -1.8151   -7.9510   -1.7795 H         1 <0>         0.4266
     32 H14        -0.4411   -9.1519   -3.7139 H         1 <0>         0.1793
     33 H15        -2.1038   -6.8427   -5.0330 H         1 <0>         0.1211
     34 H16        -1.2731   -8.2270   -5.9248 H         1 <0>         0.1344
     35 H17        -2.6812   -9.9001   -4.6393 H         1 <0>         0.1348
     36 H18        -3.5119   -8.5157   -3.7475 H         1 <0>         0.1203
     37 H19        -1.6884   -6.6532   -2.7868 H         1 <0>         0.4286
@<TRIPOS>BOND
     1    1    2 1
     2    1   19 1
     3    1   20 1
     4    1   21 1
     5    2    7 ar
     6    2    3 ar
     7    3    4 ar
     8    3   22 1
     9    4    5 ar
    10    4   23 1
    11    5    6 ar
    12    5    9 1
    13    6    7 ar
    14    6   24 1
    15    7    8 1
    16    8   25 1
    17    8   26 1
    18    8   27 1
    19    9   13 1
    20    9   10 2
    21   10   11 1
    22   11   12 2
    23   11   14 1
    24   12   13 1
    25   12   28 1
    26   14   15 1
    27   14   29 1
    28   14   30 1
    29   15   16 1
    30   15   31 1
    31   15   37 1
    32   16   18 1
    33   16   17 1
    34   16   32 1
    35   17   18 1
    36   17   33 1
    37   17   34 1
    38   18   35 1
    39   18   36 1
@<TRIPOS>MOLECULE
ZINC41009979
   31    32     0     0     0
SMALL
USER_CHARGES

@<TRIPOS>ATOM
      1 C1         -0.0178    1.4648    0.0101 C.3       1 <0>        -0.0469
      2 N1          0.0021   -0.0041    0.0020 N.4       1 <0>        -0.5086
      3 C2          0.7126   -0.4907    1.1921 C.3       1 <0>         0.0767
      4 C3          0.7330   -1.9975    1.1838 C.2       1 <0>        -0.0109
      5 C4          1.8055   -2.6607    0.6776 C.2       1 <0>        -0.1800
      6 S1          1.2916   -4.3560    0.9228 S.3       1 <0>         0.1009
      7 C5         -0.2922   -3.9976    1.6711 C.2       1 <0>         0.1790
      8 N2         -0.2832   -2.6715    1.6707 N.2       1 <0>        -0.5049
      9 C6         -1.3296   -4.9283    2.1624 C.ar      1 <0>        -0.0335
     10 C7         -2.5119   -4.4301    2.7138 C.ar      1 <0>        -0.0416
     11 C8         -3.4774   -5.3000    3.1705 C.ar      1 <0>        -0.0849
     12 C9         -3.2753   -6.6738    3.0832 C.ar      1 <0>        -0.0748
     13 C10        -2.0981   -7.1730    2.5347 C.ar      1 <0>        -0.1205
     14 C11        -1.1318   -6.3077    2.0708 C.ar      1 <0>        -0.0576
     15 S2         -4.5122   -7.7836    3.6689 S.3       1 <0>         0.0011
     16 C12        -3.8136   -9.4271    3.3504 C.3       1 <0>         0.4498
     17 F1         -2.6089   -9.5649    4.0481 F         1 <0>        -0.1604
     18 F2         -4.7150  -10.4078    3.7782 F         1 <0>        -0.1376
     19 F3         -3.5783   -9.5761    1.9795 F         1 <0>        -0.1609
     20 H1          1.0047    1.8421    0.0024 H         1 <0>         0.1252
     21 H2         -0.5450    1.8259   -0.8730 H         1 <0>         0.1279
     22 H3         -0.5280    1.8163    0.9069 H         1 <0>         0.1254
     23 H4         -0.9445   -0.3533    0.0092 H         1 <0>         0.4332
     24 H5          1.7352   -0.1134    1.1844 H         1 <0>         0.1462
     25 H6          0.2024   -0.1392    2.0889 H         1 <0>         0.1456
     26 H7          2.7162   -2.2717    0.2466 H         1 <0>         0.2113
     27 H8         -2.6690   -3.3638    2.7824 H         1 <0>         0.1474
     28 H9         -4.3920   -4.9152    3.5970 H         1 <0>         0.1484
     29 H10        -1.9436   -8.2398    2.4685 H         1 <0>         0.1378
     30 H11        -0.2201   -6.6957    1.6410 H         1 <0>         0.1387
     31 H12         0.4744   -0.3295   -0.8281 H         1 <0>         0.4285
@<TRIPOS>BOND
     1    1    2 1
     2    1   20 1
     3    1   21 1
     4    1   22 1
     5    2    3 1
     6    2   23 1
     7    2   31 1
     8    3    4 1
     9    3   24 1
    10    3   25 1
    11    4    8 1
    12    4    5 2
    13    5    6 1
    14    5   26 1
    15    6    7 1
    16    7    8 2
    17    7    9 1
    18    9   14 ar
    19    9   10 ar
    20   10   11 ar
    21   10   27 1
    22   11   12 ar
    23   11   28 1
    24   12   13 ar
    25   12   15 1
    26   13   14 ar
    27   13   29 1
    28   14   30 1
    29   15   16 1
    30   16   17 1
    31   16   18 1
    32   16   19 1
@<TRIPOS>MOLECULE
ZINC40414420
   34    35     0     0     0
SMALL
USER_CHARGES

@<TRIPOS>ATOM
      1 C1         -0.0187    1.5258    0.0104 C.3       1 <0>        -0.1559
      2 C2          0.0021   -0.0041    0.0020 C.3       1 <0>         0.0500
      3 O1          0.6932   -0.4774    1.1597 O.3       1 <0>        -0.3064
      4 C3          0.8019   -1.8237    1.3056 C.ar      1 <0>         0.1731
      5 C4          0.2580   -2.6702    0.3485 C.ar      1 <0>        -0.2090
      6 C5          0.3662   -4.0368    0.4929 C.ar      1 <0>        -0.0371
      7 C6          1.0237   -4.5695    1.6032 C.ar      1 <0>        -0.0883
      8 C7          1.5691   -3.7153    2.5631 C.ar      1 <0>        -0.0194
      9 C8          1.4617   -2.3498    2.4086 C.ar      1 <0>        -0.1563
     10 C9          1.1416   -6.0344    1.7621 C.2       1 <0>         0.1994
     11 N1          1.7143   -6.7320    2.7333 N.2       1 <0>        -0.5165
     12 C10         1.7256   -8.0446    2.7137 C.2       1 <0>        -0.0068
     13 C11         1.1422   -8.7118    1.6834 C.2       1 <0>        -0.1883
     14 S1          0.5433   -7.3428    0.7006 S.3       1 <0>         0.0813
     15 C12         2.3849   -8.8104    3.8317 C.3       1 <0>         0.0767
     16 N2          3.8230   -8.9342    3.5589 N.4       1 <0>        -0.5084
     17 C13         4.4656   -9.6807    4.6487 C.3       1 <0>        -0.0467
     18 H1          1.0039    1.9031    0.0027 H         1 <0>         0.0693
     19 H2         -0.5459    1.8868   -0.8726 H         1 <0>         0.0842
     20 H3         -0.5289    1.8773    0.9072 H         1 <0>         0.0696
     21 H4         -1.0205   -0.3814    0.0098 H         1 <0>         0.0684
     22 H5          0.5123   -0.3556   -0.8948 H         1 <0>         0.0682
     23 H6         -0.2508   -2.2573   -0.5100 H         1 <0>         0.1427
     24 H7         -0.0574   -4.6944   -0.2517 H         1 <0>         0.1317
     25 H8          2.0782   -4.1237    3.4236 H         1 <0>         0.1419
     26 H9          1.8873   -1.6882    3.1486 H         1 <0>         0.1451
     27 H10         1.0600   -9.7743    1.5083 H         1 <0>         0.2087
     28 H11         2.2378   -8.2792    4.7720 H         1 <0>         0.1447
     29 H12         1.9416   -9.8038    3.9024 H         1 <0>         0.1451
     30 H13         3.9591   -9.4260    2.6884 H         1 <0>         0.4282
     31 H14         5.5327   -9.7726    4.4463 H         1 <0>         0.1274
     32 H15         4.3186   -9.1495    5.5890 H         1 <0>         0.1251
     33 H16         4.0224  -10.6740    4.7194 H         1 <0>         0.1248
     34 H17         4.2333   -8.0147    3.4934 H         1 <0>         0.4333
@<TRIPOS>BOND
     1    1    2 1
     2    1   18 1
     3    1   19 1
     4    1   20 1
     5    2    3 1
     6    2   21 1
     7    2   22 1
     8    3    4 1
     9    4    9 ar
    10    4    5 ar
    11    5    6 ar
    12    5   23 1
    13    6    7 ar
    14    6   24 1
    15    7    8 ar
    16    7   10 1
    17    8    9 ar
    18    8   25 1
    19    9   26 1
    20   10   14 1
    21   10   11 2
    22   11   12 1
    23   12   13 2
    24   12   15 1
    25   13   14 1
    26   13   27 1
    27   15   16 1
    28   15   28 1
    29   15   29 1
    30   16   17 1
    31   16   30 1
    32   16   34 1
    33   17   31 1
    34   17   32 1
    35   17   33 1
@<TRIPOS>MOLECULE
ZINC40999683
   36    37     0     0     0
SMALL
USER_CHARGES

@<TRIPOS>ATOM
      1 C1          2.0153   -1.9945    2.0090 C.3       1 <0>        -0.1139
      2 C2          0.9784   -1.6821    0.9610 C.ar      1 <0>        -0.0316
      3 C3          1.0386   -2.2927   -0.2750 C.ar      1 <0>        -0.1211
      4 C4          0.0873   -2.0073   -1.2378 C.ar      1 <0>        -0.0800
      5 C5         -0.9299   -1.1085   -0.9691 C.ar      1 <0>        -0.1224
      6 C6         -1.0014   -0.4913    0.2625 C.ar      1 <0>        -0.0786
      7 C7         -0.0480   -0.7791    1.2403 C.ar      1 <0>        -0.0483
      8 C8         -0.1219   -0.1254    2.5646 C.2       1 <0>         0.1904
      9 N1         -0.0070   -0.6577    3.7732 N.2       1 <0>        -0.4992
     10 C9         -0.1003    0.0802    4.8543 C.2       1 <0>        -0.0123
     11 C10        -0.3189    1.4176    4.7451 C.2       1 <0>        -0.1825
     12 S1         -0.3825    1.5972    2.9668 S.3       1 <0>         0.0893
     13 C11         0.0343   -0.5540    6.2148 C.3       1 <0>         0.0751
     14 N2         -1.2675   -1.0879    6.6371 N.4       1 <0>        -0.5064
     15 C12        -1.1364   -1.7060    7.9632 C.3       1 <0>         0.0240
     16 C13        -0.7859   -0.6314    8.9944 C.3       1 <0>        -0.1855
     17 C14        -2.4593   -2.3709    8.3490 C.3       1 <0>        -0.1842
     18 H1          1.6406   -2.7769    2.6689 H         1 <0>         0.0792
     19 H2          2.9303   -2.3351    1.5245 H         1 <0>         0.0732
     20 H3          2.2248   -1.0974    2.5915 H         1 <0>         0.0619
     21 H4          1.8304   -2.9946   -0.4912 H         1 <0>         0.1360
     22 H5          0.1389   -2.4879   -2.2036 H         1 <0>         0.1355
     23 H6         -1.6691   -0.8895   -1.7254 H         1 <0>         0.1368
     24 H7         -1.7958    0.2100    0.4710 H         1 <0>         0.1292
     25 H8         -0.4211    2.1651    5.5178 H         1 <0>         0.2089
     26 H9          0.7614   -1.3646    6.1675 H         1 <0>         0.1443
     27 H10         0.3703    0.1941    6.9328 H         1 <0>         0.1455
     28 H11        -1.9406   -0.3375    6.6808 H         1 <0>         0.4238
     29 H12        -0.3464   -2.4566    7.9377 H         1 <0>         0.1404
     30 H13        -1.5759    0.1191    9.0199 H         1 <0>         0.0821
     31 H14        -0.6886   -1.0901    9.9784 H         1 <0>         0.1071
     32 H15         0.1566   -0.1578    8.7195 H         1 <0>         0.0814
     33 H16        -2.7090   -3.1364    7.6144 H         1 <0>         0.0817
     34 H17        -2.3620   -2.8296    9.3330 H         1 <0>         0.1077
     35 H18        -3.2493   -1.6203    8.3745 H         1 <0>         0.0812
     36 H19        -1.5786   -1.7804    5.9724 H         1 <0>         0.4312
@<TRIPOS>BOND
     1    1    2 1
     2    1   18 1
     3    1   19 1
     4    1   20 1
     5    2    7 ar
     6    2    3 ar
     7    3    4 ar
     8    3   21 1
     9    4    5 ar
    10    4   22 1
    11    5    6 ar
    12    5   23 1
    13    6    7 ar
    14    6   24 1
    15    7    8 1
    16    8   12 1
    17    8    9 2
    18    9   10 1
    19   10   11 2
    20   10   13 1
    21   11   12 1
    22   11   25 1
    23   13   14 1
    24   13   26 1
    25   13   27 1
    26   14   15 1
    27   14   28 1
    28   14   36 1
    29   15   16 1
    30   15   17 1
    31   15   29 1
    32   16   30 1
    33   16   31 1
    34   16   32 1
    35   17   33 1
    36   17   34 1
    37   17   35 1
@<TRIPOS>MOLECULE
ZINC65533891
   30    32     0     0     0
SMALL
USER_CHARGES

@<TRIPOS>ATOM
      1 C1         -0.0184    1.5028    0.0103 C.3       1 <0>        -0.1176
      2 C2          0.0021   -0.0041    0.0020 C.ar      1 <0>        -0.0836
      3 C3          0.0058   -0.6878   -1.2010 C.ar      1 <0>        -0.0960
      4 C4          0.0245   -2.0709   -1.2172 C.ar      1 <0>        -0.1151
      5 C5          0.0396   -2.7777   -0.0322 C.ar      1 <0>        -0.0717
      6 C6          0.0364   -2.0942    1.1842 C.ar      1 <0>        -0.0215
      7 C7          0.0228   -0.6986    1.1937 C.ar      1 <0>        -0.0913
      8 C8          0.0521   -2.8453    2.4579 C.2       1 <0>         0.1701
      9 N1          0.0753   -4.1548    2.6622 N.2       1 <0>        -0.4917
     10 C9          0.0869   -4.6552    3.8752 C.2       1 <0>         0.0296
     11 C10         0.0749   -3.8239    4.9511 C.2       1 <0>        -0.1875
     12 S1          0.0525   -2.2315    4.1373 S.3       1 <0>         0.0344
     13 C11         0.1129   -6.1486    4.0755 C.3       1 <0>         0.1830
     14 N2         -1.0098   -6.7572    3.3575 N.pl3     1 <0>        -0.4700
     15 C12        -2.2570   -6.9832    3.8362 C.2       1 <0>         0.1489
     16 N3         -2.9460   -7.5395    2.8774 N.2       1 <0>        -0.2970
     17 N4         -2.2062   -7.6732    1.8341 N.2       1 <0>        -0.3024
     18 C13        -1.0134   -7.2030    2.0780 C.2       1 <0>         0.1726
     19 H1          1.0042    1.8801    0.0026 H         1 <0>         0.0748
     20 H2         -0.5455    1.8639   -0.8728 H         1 <0>         0.0716
     21 H3         -0.5286    1.8543    0.9071 H         1 <0>         0.0690
     22 H4         -0.0064   -0.1393   -2.1312 H         1 <0>         0.1304
     23 H5          0.0269   -2.5987   -2.1595 H         1 <0>         0.1338
     24 H6          0.0535   -3.8575   -0.0462 H         1 <0>         0.1349
     25 H7          0.0245   -0.1637    2.1319 H         1 <0>         0.1265
     26 H8          0.0815   -4.0598    6.0050 H         1 <0>         0.2050
     27 H9          1.0505   -6.5504    3.6915 H         1 <0>         0.1141
     28 H10         0.0293   -6.3741    5.1387 H         1 <0>         0.1165
     29 H11        -2.6146   -6.7471    4.8276 H         1 <0>         0.2150
     30 H12        -0.1825   -7.1765    1.3886 H         1 <0>         0.2150
@<TRIPOS>BOND
     1    1    2 1
     2    1   19 1
     3    1   20 1
     4    1   21 1
     5    2    7 ar
     6    2    3 ar
     7    3    4 ar
     8    3   22 1
     9    4    5 ar
    10    4   23 1
    11    5    6 ar
    12    5   24 1
    13    6    7 ar
    14    6    8 1
    15    7   25 1
    16    8   12 1
    17    8    9 2
    18    9   10 1
    19   10   11 2
    20   10   13 1
    21   11   12 1
    22   11   26 1
    23   13   14 1
    24   13   27 1
    25   13   28 1
    26   14   18 1
    27   14   15 1
    28   15   16 2
    29   15   29 1
    30   16   17 1
    31   17   18 2
    32   18   30 1
@<TRIPOS>MOLECULE
ZINC61798256
   27    28     0     0     0
SMALL
USER_CHARGES

@<TRIPOS>ATOM
      1 C1         -0.0167    1.3787    0.0096 C.ar      1 <0>        -0.0824
      2 C2          1.1668    2.0884    0.0021 C.ar      1 <0>        -0.0983
      3 C3          2.3854    1.4089   -0.0131 C.ar      1 <0>        -0.0027
      4 C4          2.3999    0.0136   -0.0207 C.ar      1 <0>        -0.1068
      5 C5          1.2084   -0.6861   -0.0131 C.ar      1 <0>         0.1025
      6 C6          0.0021   -0.0041    0.0020 C.ar      1 <0>        -0.1249
      7 F1          1.2195   -2.0371   -0.0208 F         1 <0>        -0.1302
      8 C7          3.6565    2.1644   -0.0217 C.2       1 <0>         0.1665
      9 N1          4.9029    1.7137   -0.0415 N.2       1 <0>        -0.5077
     10 C8          5.9251    2.5367   -0.0463 C.2       1 <0>         0.0398
     11 C9          5.7137    3.8796   -0.0308 C.2       1 <0>        -0.1925
     12 S1          3.9260    3.9320   -0.0160 S.3       1 <0>         0.0731
     13 C10         7.3308    1.9941   -0.0684 C.3       1 <0>        -0.0696
     14 C11         7.5228    1.0272    1.1017 C.3       1 <0>        -0.0033
     15 N2          8.8931    0.4983    1.0801 N.4       1 <0>        -0.6373
     16 H1         -0.9599    1.9045    0.0260 H         1 <0>         0.1485
     17 H2          1.1498    3.1682    0.0077 H         1 <0>         0.1363
     18 H3          3.3399   -0.5180   -0.0328 H         1 <0>         0.1452
     19 H4         -0.9270   -0.5546    0.0079 H         1 <0>         0.1476
     20 H5          6.4274    4.6902   -0.0319 H         1 <0>         0.2048
     21 H6          7.5021    1.4671   -1.0071 H         1 <0>         0.1024
     22 H7          8.0395    2.8174    0.0206 H         1 <0>         0.1029
     23 H8          7.3515    1.5542    2.0403 H         1 <0>         0.1332
     24 H9          6.8141    0.2038    1.0127 H         1 <0>         0.1418
     25 H10         9.0517    0.0105    0.2112 H         1 <0>         0.4363
     26 H11         9.5491    1.2605    1.1625 H         1 <0>         0.4346
     27 H12         9.0197   -0.1394    1.8518 H         1 <0>         0.4402
@<TRIPOS>BOND
     1    1    6 ar
     2    1    2 ar
     3    1   16 1
     4    2    3 ar
     5    2   17 1
     6    3    4 ar
     7    3    8 1
     8    4    5 ar
     9    4   18 1
    10    5    6 ar
    11    5    7 1
    12    6   19 1
    13    8   12 1
    14    8    9 2
    15    9   10 1
    16   10   11 2
    17   10   13 1
    18   11   12 1
    19   11   20 1
    20   13   14 1
    21   13   21 1
    22   13   22 1
    23   14   15 1
    24   14   23 1
    25   14   24 1
    26   15   25 1
    27   15   26 1
    28   15   27 1
@<TRIPOS>MOLECULE
ZINC11851479
   34    36     0     0     0
SMALL
USER_CHARGES
[4-(4-phenylthiazol-2-yl)phenyl]methanamine
@<TRIPOS>ATOM
      1 C1          8.6835    2.4156   -0.0673 C.ar      1 <0>        -0.1065
      2 C2          7.5844    3.2553   -0.0530 C.ar      1 <0>        -0.1220
      3 C3          6.3094    2.7271   -0.0433 C.ar      1 <0>        -0.0858
      4 C4          6.1304    1.3450   -0.0485 C.ar      1 <0>        -0.0376
      5 C5          7.2416    0.5038   -0.0575 C.ar      1 <0>        -0.1025
      6 C6          8.5119    1.0430   -0.0729 C.ar      1 <0>        -0.1173
      7 C7          4.7624    0.7713   -0.0382 C.2       1 <0>         0.1003
      8 C8          4.5821   -0.5876   -0.0432 C.2       1 <0>        -0.1724
      9 S1          2.7966   -0.6846   -0.0266 S.3       1 <0>         0.0490
     10 C9          2.4786    1.0744   -0.0148 C.2       1 <0>         0.1135
     11 N1          3.7078    1.5645   -0.0292 N.2       1 <0>        -0.4709
     12 C10         1.1854    1.7914    0.0004 C.ar      1 <0>         0.0379
     13 C11        -0.0126    1.0758    0.0080 C.ar      1 <0>        -0.0952
     14 C12        -1.2158    1.7509    0.0173 C.ar      1 <0>        -0.0853
     15 C13        -1.2362    3.1342    0.0293 C.ar      1 <0>        -0.1637
     16 C14        -0.0520    3.8496    0.0223 C.ar      1 <0>        -0.0883
     17 C15         1.1578    3.1866    0.0076 C.ar      1 <0>        -0.0744
     18 C16        -2.5541    3.8649    0.0443 C.3       1 <0>         0.0515
     19 H1          9.6795    2.8332   -0.0745 H         1 <0>         0.1275
     20 H2          7.7242    4.3262   -0.0490 H         1 <0>         0.1272
     21 H3          5.4519    3.3836   -0.0321 H         1 <0>         0.1294
     22 H4          7.1087   -0.5680   -0.0571 H         1 <0>         0.1249
     23 H5          9.3736    0.3921   -0.0845 H         1 <0>         0.1299
     24 H6          5.3155   -1.3803   -0.0544 H         1 <0>         0.2081
     25 H7          0.0021   -0.0041    0.0020 H         1 <0>         0.1400
     26 H8         -2.1437    1.1982    0.0187 H         1 <0>         0.1411
     27 H9         -0.0747    4.9293    0.0279 H         1 <0>         0.1405
     28 H10         2.0815    3.7462    0.0015 H         1 <0>         0.1480
     29 H11        -3.2989    3.2604    0.5618 H         1 <0>         0.1429
     30 H12        -2.4358    4.8170    0.5616 H         1 <0>         0.1401
     31 H13        -3.0495    3.2459   -1.8557 H         1 <0>         0.4369
     32 H14        -3.8767    4.5981   -1.3527 H         1 <0>         0.4404
     33 N2         -2.9754    4.1235   -1.3439 N.4       1 <0>        -0.6464
     34 H15        -2.2777    4.7210   -1.8026 H         1 <0>         0.4392
@<TRIPOS>BOND
     1    1    6 ar
     2    1    2 ar
     3    1   19 1
     4    2    3 ar
     5    2   20 1
     6    3    4 ar
     7    3   21 1
     8    4    5 ar
     9    4    7 1
    10    5    6 ar
    11    5   22 1
    12    6   23 1
    13    7   11 1
    14    7    8 2
    15    8    9 1
    16    8   24 1
    17    9   10 1
    18   10   11 2
    19   10   12 1
    20   12   17 ar
    21   12   13 ar
    22   13   14 ar
    23   13   25 1
    24   14   15 ar
    25   14   26 1
    26   15   16 ar
    27   15   18 1
    28   16   17 ar
    29   16   27 1
    30   17   28 1
    31   18   29 1
    32   18   30 1
    33   18   33 1
    34   31   33 1
    35   32   33 1
    36   33   34 1
@<TRIPOS>MOLECULE
ZINC84122892
   30    31     0     0     0
SMALL
USER_CHARGES

@<TRIPOS>ATOM
      1 C1         -0.0187    1.5258    0.0104 C.3       1 <0>        -0.1449
      2 C2          0.0021   -0.0041    0.0020 C.3       1 <0>        -0.0573
      3 C3          0.7074   -0.4901   -1.2379 C.2       1 <0>         0.0605
      4 C4          1.7603   -1.3438   -1.1319 C.2       1 <0>        -0.1769
      5 S1          2.1787   -1.5671   -2.8564 S.3       1 <0>         0.0121
      6 C5          0.9092   -0.5021   -3.5280 C.2       1 <0>         0.1213
      7 N1          0.3031   -0.0943   -2.4218 N.2       1 <0>        -0.4739
      8 C6          0.6120   -0.1700   -4.9379 C.ar      1 <0>         0.0049
      9 C7         -0.4346    0.7000   -5.2474 C.ar      1 <0>        -0.0405
     10 C8         -0.7067    1.0057   -6.5647 C.ar      1 <0>        -0.1094
     11 C9          0.0553    0.4518   -7.5783 C.ar      1 <0>        -0.0792
     12 C10         1.0937   -0.4115   -7.2783 C.ar      1 <0>        -0.1674
     13 C11         1.3803   -0.7206   -5.9644 C.ar      1 <0>        -0.0740
     14 C12         1.9178   -1.0108   -8.3886 C.3       1 <0>         0.0486
     15 N2          3.0582   -0.1322   -8.6810 N.4       1 <0>        -0.6377
     16 H1          1.0039    1.9031    0.0027 H         1 <0>         0.0519
     17 H2         -0.5459    1.8868   -0.8726 H         1 <0>         0.0622
     18 H3         -0.5289    1.8773    0.9072 H         1 <0>         0.0637
     19 H4          0.5293   -0.3651    0.8851 H         1 <0>         0.0833
     20 H5         -1.0205   -0.3814    0.0098 H         1 <0>         0.0832
     21 H6          2.2175   -1.7689   -0.2507 H         1 <0>         0.2059
     22 H7         -1.0303    1.1326   -4.4573 H         1 <0>         0.1481
     23 H8         -1.5165    1.6784   -6.8056 H         1 <0>         0.1456
     24 H9         -0.1618    0.6943   -8.6081 H         1 <0>         0.1387
     25 H10         2.1943   -1.3909   -5.7312 H         1 <0>         0.1358
     26 H11         2.2835   -1.9907   -8.0814 H         1 <0>         0.1417
     27 H12         1.3021   -1.1164   -9.2818 H         1 <0>         0.1442
     28 H13         3.6282   -0.0345   -7.8542 H         1 <0>         0.4350
     29 H14         3.6100   -0.5335   -9.4244 H         1 <0>         0.4391
     30 H15         2.7198    0.7748   -8.9653 H         1 <0>         0.4355
@<TRIPOS>BOND
     1    1    2 1
     2    1   16 1
     3    1   17 1
     4    1   18 1
     5    2    3 1
     6    2   19 1
     7    2   20 1
     8    3    7 1
     9    3    4 2
    10    4    5 1
    11    4   21 1
    12    5    6 1
    13    6    7 2
    14    6    8 1
    15    8   13 ar
    16    8    9 ar
    17    9   10 ar
    18    9   22 1
    19   10   11 ar
    20   10   23 1
    21   11   12 ar
    22   11   24 1
    23   12   13 ar
    24   12   14 1
    25   13   25 1
    26   14   15 1
    27   14   26 1
    28   14   27 1
    29   15   28 1
    30   15   29 1
    31   15   30 1
@<TRIPOS>MOLECULE
ZINC62938355
   37    39     0     0     0
SMALL
USER_CHARGES

@<TRIPOS>ATOM
      1 C1         -0.0184    1.5028    0.0103 C.3       1 <0>        -0.1245
      2 C2          0.0021   -0.0041    0.0020 C.ar      1 <0>        -0.0538
      3 C3          0.0057   -0.6862   -1.2016 C.ar      1 <0>        -0.1183
      4 C4          0.0243   -2.0657   -1.2161 C.ar      1 <0>        -0.0815
      5 C5          0.0396   -2.7729   -0.0132 C.ar      1 <0>        -0.0394
      6 C6          0.0359   -2.0788    1.1974 C.ar      1 <0>        -0.0612
      7 C7          0.0229   -0.6992    1.1981 C.ar      1 <0>        -0.1234
      8 C8          0.0592   -4.2515   -0.0214 C.2       1 <0>         0.1784
      9 N1          0.0700   -5.0945    0.9987 N.2       1 <0>        -0.4998
     10 C9          0.0873   -6.4003    0.8093 C.2       1 <0>         0.0782
     11 C10         0.0943   -6.8946   -0.4694 C.2       1 <0>        -0.1920
     12 S1          0.0667   -5.3750   -1.4117 S.3       1 <0>         0.0519
     13 C11         0.0996   -7.3249    1.9693 C.ar      1 <0>         0.0266
     14 C12         0.1242   -8.7033    1.7649 C.ar      1 <0>        -0.1079
     15 C13         0.1355   -9.5588    2.8478 C.ar      1 <0>        -0.0877
     16 C14         0.1220   -9.0505    4.1342 C.ar      1 <0>        -0.1755
     17 C15         0.0976   -7.6833    4.3431 C.ar      1 <0>        -0.0903
     18 C16         0.0924   -6.8183    3.2676 C.ar      1 <0>        -0.0880
     19 C17         0.1335   -9.9898    5.3126 C.3       1 <0>         0.0487
     20 N2          1.5220  -10.2715    5.7008 N.4       1 <0>        -0.6372
     21 H1          1.0042    1.8801    0.0026 H         1 <0>         0.0787
     22 H2         -0.5455    1.8639   -0.8728 H         1 <0>         0.0731
     23 H3         -0.5286    1.8543    0.9071 H         1 <0>         0.0724
     24 H4         -0.0065   -0.1377   -2.1319 H         1 <0>         0.1353
     25 H5          0.0268   -2.5970   -2.1564 H         1 <0>         0.1283
     26 H6          0.0473   -2.6204    2.1317 H         1 <0>         0.1339
     27 H7          0.0244   -0.1608    2.1343 H         1 <0>         0.1334
     28 H8          0.1085   -7.9185   -0.8127 H         1 <0>         0.2029
     29 H9          0.1341   -9.1012    0.7609 H         1 <0>         0.1373
     30 H10         0.1546  -10.6271    2.6905 H         1 <0>         0.1356
     31 H11         0.0868   -7.2919    5.3496 H         1 <0>         0.1346
     32 H12         0.0779   -5.7510    3.4318 H         1 <0>         0.1449
     33 H13        -0.3914   -9.5291    6.1495 H         1 <0>         0.1398
     34 H14        -0.3636  -10.9207    5.0400 H         1 <0>         0.1398
     35 H15         1.9821   -9.4097    5.9531 H         1 <0>         0.4347
     36 H16         1.5296  -10.9004    6.4898 H         1 <0>         0.4374
     37 H17         2.0079  -10.6979    4.9261 H         1 <0>         0.4344
@<TRIPOS>BOND
     1    1    2 1
     2    1   21 1
     3    1   22 1
     4    1   23 1
     5    2    7 ar
     6    2    3 ar
     7    3    4 ar
     8    3   24 1
     9    4    5 ar
    10    4   25 1
    11    5    6 ar
    12    5    8 1
    13    6    7 ar
    14    6   26 1
    15    7   27 1
    16    8   12 1
    17    8    9 2
    18    9   10 1
    19   10   11 2
    20   10   13 1
    21   11   12 1
    22   11   28 1
    23   13   18 ar
    24   13   14 ar
    25   14   15 ar
    26   14   29 1
    27   15   16 ar
    28   15   30 1
    29   16   17 ar
    30   16   19 1
    31   17   18 ar
    32   17   31 1
    33   18   32 1
    34   19   20 1
    35   19   33 1
    36   19   34 1
    37   20   35 1
    38   20   36 1
    39   20   37 1
@<TRIPOS>MOLECULE
ZINC11755524
   39    40     0     0     0
SMALL
USER_CHARGES
2-[2-(4-tert-butylphenyl)thiazol-4-yl]ethanamine
@<TRIPOS>ATOM
      1 C1         -2.6623    4.7497   -1.1962 C.3       1 <0>        -0.1408
      2 C2         -2.5541    3.8649    0.0473 C.3       1 <0>        -0.0363
      3 C3         -3.6996    2.8507    0.0528 C.3       1 <0>        -0.1496
      4 C4         -2.6384    4.7362    1.3022 C.3       1 <0>        -0.1413
      5 C5         -1.2362    3.1342    0.0308 C.ar      1 <0>        -0.0344
      6 C6         -1.2158    1.7509    0.0173 C.ar      1 <0>        -0.1182
      7 C7         -0.0126    1.0758    0.0080 C.ar      1 <0>        -0.0813
      8 C8          1.1854    1.7914    0.0004 C.ar      1 <0>        -0.0427
      9 C9          1.1578    3.1866    0.0082 C.ar      1 <0>        -0.0623
     10 C10        -0.0520    3.8496    0.0233 C.ar      1 <0>        -0.1184
     11 C11         2.4785    1.0744   -0.0164 C.2       1 <0>         0.1810
     12 N1          3.7110    1.5624   -0.0256 N.2       1 <0>        -0.5156
     13 C12         4.7573    0.7705   -0.0399 C.2       1 <0>         0.0419
     14 C13         4.5861   -0.5782   -0.0456 C.2       1 <0>        -0.1996
     15 S1          2.8009   -0.6842   -0.0217 S.3       1 <0>         0.0550
     16 C14         6.1463    1.3551   -0.0507 C.3       1 <0>        -0.0698
     17 C15         6.2836    2.3220   -1.2285 C.3       1 <0>         0.0016
     18 H1         -2.6022    4.1290   -2.0901 H         1 <0>         0.0581
     19 H2         -3.6155    5.2783   -1.1842 H         1 <0>         0.0647
     20 H3         -1.8462    5.4723   -1.2001 H         1 <0>         0.0578
     21 H4         -3.6225    2.2203    0.9387 H         1 <0>         0.0611
     22 H5         -4.6528    3.3792    0.0648 H         1 <0>         0.0645
     23 H6         -3.6395    2.2299   -0.8411 H         1 <0>         0.0609
     24 H7         -1.8223    5.4588    1.2983 H         1 <0>         0.0580
     25 H8         -3.5916    5.2648    1.3142 H         1 <0>         0.0648
     26 H9         -2.5613    4.1059    2.1881 H         1 <0>         0.0585
     27 H10        -2.1437    1.1982    0.0187 H         1 <0>         0.1403
     28 H11         0.0021   -0.0041    0.0020 H         1 <0>         0.1278
     29 H12         2.0815    3.7462    0.0020 H         1 <0>         0.1318
     30 H13        -0.0748    4.9293    0.0297 H         1 <0>         0.1326
     31 H14         5.3237   -1.3670   -0.0574 H         1 <0>         0.2023
     32 H15         6.3220    1.8912    0.8819 H         1 <0>         0.1013
     33 H16         6.8773    0.5530   -0.1520 H         1 <0>         0.1013
     34 H17         6.1078    1.7858   -2.1611 H         1 <0>         0.1307
     35 H18         5.5525    3.1241   -1.1272 H         1 <0>         0.1427
     36 H19         7.7535    3.5343   -2.0082 H         1 <0>         0.4415
     37 H20         7.8484    3.3391   -0.3594 H         1 <0>         0.4377
     38 N2          7.6511    2.8707   -1.2422 N.4       1 <0>        -0.6464
     39 H21         8.3212    2.1036   -1.3716 H         1 <0>         0.4386
@<TRIPOS>BOND
     1    1    2 1
     2    1   18 1
     3    1   19 1
     4    1   20 1
     5    2    3 1
     6    2    4 1
     7    2    5 1
     8    3   21 1
     9    3   22 1
    10    3   23 1
    11    4   24 1
    12    4   25 1
    13    4   26 1
    14    5   10 ar
    15    5    6 ar
    16    6    7 ar
    17    6   27 1
    18    7    8 ar
    19    7   28 1
    20    8    9 ar
    21    8   11 1
    22    9   10 ar
    23    9   29 1
    24   10   30 1
    25   11   15 1
    26   11   12 2
    27   12   13 1
    28   13   14 2
    29   13   16 1
    30   14   15 1
    31   14   31 1
    32   16   17 1
    33   16   32 1
    34   16   33 1
    35   17   34 1
    36   17   35 1
    37   17   38 1
    38   36   38 1
    39   37   38 1
    40   38   39 1
@<TRIPOS>MOLECULE
ZINC11755515
   33    34     0     0     0
SMALL
USER_CHARGES
2-[2-(4-ethylphenyl)thiazol-4-yl]ethanamine
@<TRIPOS>ATOM
      1 C1         -0.7527    1.5927   -1.2315 C.3       1 <0>        -0.1492
      2 C2         -0.0127    1.0858    0.0080 C.3       1 <0>        -0.0944
      3 C3         -0.7181    1.5718    1.2479 C.ar      1 <0>        -0.0465
      4 C4         -0.3572    2.7803    1.8166 C.ar      1 <0>        -0.1209
      5 C5         -1.0029    3.2336    2.9485 C.ar      1 <0>        -0.0620
      6 C6         -2.0139    2.4646    3.5264 C.ar      1 <0>        -0.0425
      7 C7         -2.3692    1.2439    2.9511 C.ar      1 <0>        -0.0811
      8 C8         -1.7198    0.8049    1.8157 C.ar      1 <0>        -0.1146
      9 C9         -2.7054    2.9411    4.7436 C.2       1 <0>         0.1799
     10 N1         -2.5190    4.0567    5.4349 N.2       1 <0>        -0.5153
     11 C10        -3.2313    4.3226    6.5044 C.2       1 <0>         0.0417
     12 C11        -4.1817    3.4441    6.9211 C.2       1 <0>        -0.1990
     13 S1         -4.0233    2.1712    5.6748 S.3       1 <0>         0.0559
     14 C12        -2.9959    5.5992    7.2698 C.3       1 <0>        -0.0698
     15 C13        -1.5204    5.6932    7.6633 C.3       1 <0>         0.0016
     16 H1         -0.2425    1.2411   -2.1283 H         1 <0>         0.0644
     17 H2         -1.7753    1.2154   -1.2238 H         1 <0>         0.0579
     18 H3         -0.7675    2.6825   -1.2255 H         1 <0>         0.0570
     19 H4          0.0021   -0.0041    0.0020 H         1 <0>         0.0789
     20 H5          1.0099    1.4631    0.0003 H         1 <0>         0.0781
     21 H6          0.4286    3.3722    1.3711 H         1 <0>         0.1333
     22 H7         -0.7234    4.1792    3.3889 H         1 <0>         0.1323
     23 H8         -3.1505    0.6440    3.3938 H         1 <0>         0.1284
     24 H9         -1.9939   -0.1396    1.3695 H         1 <0>         0.1357
     25 H10        -4.8500    3.5012    7.7675 H         1 <0>         0.2025
     26 H11        -3.2602    6.4518    6.6444 H         1 <0>         0.1010
     27 H12        -3.6126    5.6029    8.1686 H         1 <0>         0.1018
     28 H13        -1.2561    4.8406    8.2888 H         1 <0>         0.1337
     29 H14        -0.9037    5.6895    6.7646 H         1 <0>         0.1398
     30 H15        -1.8983    6.9946    9.2132 H         1 <0>         0.4362
     31 H16        -0.3229    7.0233    8.6809 H         1 <0>         0.4415
     32 N2         -1.2972    6.9546    8.3917 N.4       1 <0>        -0.6465
     33 H17        -1.5201    7.7446    7.7748 H         1 <0>         0.4402
@<TRIPOS>BOND
     1    1    2 1
     2    1   16 1
     3    1   17 1
     4    1   18 1
     5    2    3 1
     6    2   19 1
     7    2   20 1
     8    3    8 ar
     9    3    4 ar
    10    4    5 ar
    11    4   21 1
    12    5    6 ar
    13    5   22 1
    14    6    7 ar
    15    6    9 1
    16    7    8 ar
    17    7   23 1
    18    8   24 1
    19    9   13 1
    20    9   10 2
    21   10   11 1
    22   11   12 2
    23   11   14 1
    24   12   13 1
    25   12   25 1
    26   14   15 1
    27   14   26 1
    28   14   27 1
    29   15   28 1
    30   15   29 1
    31   15   32 1
    32   30   32 1
    33   31   32 1
    34   32   33 1
@<TRIPOS>MOLECULE
ZINC11851481
   37    39     0     0     0
SMALL
USER_CHARGES
[4-[4-(p-tolyl)thiazol-2-yl]phenyl]methanamine
@<TRIPOS>ATOM
      1 C1         10.0732    2.9984   -0.0792 C.3       1 <0>        -0.1213
      2 C2          8.6835    2.4156   -0.0682 C.ar      1 <0>        -0.0702
      3 C3          7.5844    3.2553   -0.0530 C.ar      1 <0>        -0.1239
      4 C4          6.3094    2.7271   -0.0433 C.ar      1 <0>        -0.0803
      5 C5          6.1304    1.3450   -0.0485 C.ar      1 <0>        -0.0445
      6 C6          7.2416    0.5038   -0.0575 C.ar      1 <0>        -0.0970
      7 C7          8.5119    1.0430   -0.0729 C.ar      1 <0>        -0.1194
      8 C8          4.7624    0.7713   -0.0382 C.2       1 <0>         0.1023
      9 C9          4.5821   -0.5876   -0.0432 C.2       1 <0>        -0.1737
     10 S1          2.7966   -0.6846   -0.0266 S.3       1 <0>         0.0477
     11 C10         2.4786    1.0744   -0.0148 C.2       1 <0>         0.1133
     12 N1          3.7078    1.5645   -0.0292 N.2       1 <0>        -0.4710
     13 C11         1.1854    1.7914    0.0004 C.ar      1 <0>         0.0382
     14 C12        -0.0126    1.0758    0.0080 C.ar      1 <0>        -0.0953
     15 C13        -1.2158    1.7509    0.0173 C.ar      1 <0>        -0.0853
     16 C14        -1.2362    3.1342    0.0293 C.ar      1 <0>        -0.1638
     17 C15        -0.0520    3.8496    0.0223 C.ar      1 <0>        -0.0883
     18 C16         1.1578    3.1866    0.0076 C.ar      1 <0>        -0.0745
     19 C17        -2.5541    3.8649    0.0443 C.3       1 <0>         0.0515
     20 H1         10.4186    3.1337    0.9457 H         1 <0>         0.0752
     21 H2         10.7473    2.3207   -0.6032 H         1 <0>         0.0702
     22 H3         10.0591    3.9622   -0.5881 H         1 <0>         0.0694
     23 H4          7.7242    4.3262   -0.0490 H         1 <0>         0.1267
     24 H5          5.4519    3.3836   -0.0314 H         1 <0>         0.1295
     25 H6          7.1087   -0.5680   -0.0571 H         1 <0>         0.1251
     26 H7          9.3736    0.3921   -0.0845 H         1 <0>         0.1294
     27 H8          5.3155   -1.3803   -0.0544 H         1 <0>         0.2078
     28 H9          0.0021   -0.0041    0.0020 H         1 <0>         0.1400
     29 H10        -2.1437    1.1982    0.0187 H         1 <0>         0.1410
     30 H11        -0.0747    4.9293    0.0279 H         1 <0>         0.1404
     31 H12         2.0815    3.7462    0.0015 H         1 <0>         0.1479
     32 H13        -3.2989    3.2604    0.5618 H         1 <0>         0.1429
     33 H14        -2.4358    4.8170    0.5616 H         1 <0>         0.1401
     34 H15        -3.0495    3.2459   -1.8557 H         1 <0>         0.4369
     35 H16        -3.8767    4.5981   -1.3527 H         1 <0>         0.4404
     36 N2         -2.9754    4.1235   -1.3439 N.4       1 <0>        -0.6464
     37 H17        -2.2777    4.7210   -1.8026 H         1 <0>         0.4392
@<TRIPOS>BOND
     1    1    2 1
     2    1   20 1
     3    1   21 1
     4    1   22 1
     5    2    7 ar
     6    2    3 ar
     7    3    4 ar
     8    3   23 1
     9    4    5 ar
    10    4   24 1
    11    5    6 ar
    12    5    8 1
    13    6    7 ar
    14    6   25 1
    15    7   26 1
    16    8   12 1
    17    8    9 2
    18    9   10 1
    19    9   27 1
    20   10   11 1
    21   11   12 2
    22   11   13 1
    23   13   18 ar
    24   13   14 ar
    25   14   15 ar
    26   14   28 1
    27   15   16 ar
    28   15   29 1
    29   16   17 ar
    30   16   19 1
    31   17   18 ar
    32   17   30 1
    33   18   31 1
    34   19   32 1
    35   19   33 1
    36   19   36 1
    37   34   36 1
    38   35   36 1
    39   36   37 1
@<TRIPOS>MOLECULE
ZINC11755519
   36    37     0     0     0
SMALL
USER_CHARGES
2-[2-(4-isopropylphenyl)thiazol-4-yl]ethanamine
@<TRIPOS>ATOM
      1 C1          1.4227    1.6154   -0.0028 C.3       1 <0>        -0.1466
      2 C2         -0.0127    1.0858    0.0080 C.3       1 <0>        -0.0652
      3 C3         -0.7527    1.5927   -1.2315 C.3       1 <0>        -0.1469
      4 C4         -0.7181    1.5718    1.2479 C.ar      1 <0>        -0.0408
      5 C5         -0.8542    2.9297    1.4753 C.ar      1 <0>        -0.1177
      6 C6         -1.5039    3.3811    2.6057 C.ar      1 <0>        -0.0624
      7 C7         -2.0138    2.4649    3.5264 C.ar      1 <0>        -0.0422
      8 C8         -1.8682    1.0966    3.2939 C.ar      1 <0>        -0.0811
      9 C9         -1.2218    0.6582    2.1566 C.ar      1 <0>        -0.1145
     10 C10        -2.7051    2.9417    4.7435 C.2       1 <0>         0.1804
     11 N1         -2.9439    4.1827    5.1437 N.2       1 <0>        -0.5153
     12 C11        -3.5792    4.4264    6.2658 C.2       1 <0>         0.0418
     13 C12        -4.0053    3.3940    7.0411 C.2       1 <0>        -0.1994
     14 S1         -3.4508    1.9998    6.0677 S.3       1 <0>         0.0555
     15 C13        -3.8355    5.8482    6.6946 C.3       1 <0>        -0.0698
     16 C14        -2.5118    6.6142    6.7384 C.3       1 <0>         0.0016
     17 H1          1.4079    2.7053    0.0031 H         1 <0>         0.0576
     18 H2          1.9499    1.2543    0.8802 H         1 <0>         0.0576
     19 H3          1.9329    1.2639   -0.8996 H         1 <0>         0.0643
     20 H4          0.0021   -0.0041    0.0020 H         1 <0>         0.0841
     21 H5         -0.2425    1.2411   -2.1283 H         1 <0>         0.0644
     22 H6         -1.7753    1.2154   -1.2238 H         1 <0>         0.0580
     23 H7         -0.7675    2.6825   -1.2255 H         1 <0>         0.0577
     24 H8         -0.4549    3.6378    0.7643 H         1 <0>         0.1330
     25 H9         -1.6134    4.4413    2.7799 H         1 <0>         0.1320
     26 H10        -2.2603    0.3824    4.0028 H         1 <0>         0.1283
     27 H11        -1.1084   -0.4004    1.9755 H         1 <0>         0.1355
     28 H12        -4.5355    3.4110    7.9818 H         1 <0>         0.2024
     29 H13        -4.5087    6.3265    5.9832 H         1 <0>         0.1014
     30 H14        -4.2907    5.8525    7.6850 H         1 <0>         0.1014
     31 H15        -1.8385    6.1359    7.4498 H         1 <0>         0.1308
     32 H16        -2.0566    6.6098    5.7480 H         1 <0>         0.1427
     33 H17        -1.9020    8.5272    7.1930 H         1 <0>         0.4416
     34 H18        -3.4332    8.4454    6.5492 H         1 <0>         0.4377
     35 N2         -2.7711    7.9960    7.1795 N.4       1 <0>        -0.6464
     36 H19        -3.1682    7.9792    8.1262 H         1 <0>         0.4386
@<TRIPOS>BOND
     1    1    2 1
     2    1   17 1
     3    1   18 1
     4    1   19 1
     5    2    3 1
     6    2    4 1
     7    2   20 1
     8    3   21 1
     9    3   22 1
    10    3   23 1
    11    4    9 ar
    12    4    5 ar
    13    5    6 ar
    14    5   24 1
    15    6    7 ar
    16    6   25 1
    17    7    8 ar
    18    7   10 1
    19    8    9 ar
    20    8   26 1
    21    9   27 1
    22   10   14 1
    23   10   11 2
    24   11   12 1
    25   12   13 2
    26   12   15 1
    27   13   14 1
    28   13   28 1
    29   15   16 1
    30   15   29 1
    31   15   30 1
    32   16   31 1
    33   16   32 1
    34   16   35 1
    35   33   35 1
    36   34   35 1
    37   35   36 1
@<TRIPOS>MOLECULE
ZINC55266060
   30    31     0     0     0
SMALL
USER_CHARGES

@<TRIPOS>ATOM
      1 C1         -0.0187    1.5258    0.0104 C.3       1 <0>        -0.1901
      2 C2          0.0021   -0.0041    0.0020 C.3       1 <0>        -0.0095
      3 N1          0.6897   -0.4778   -1.2066 N.4       1 <0>        -0.5091
      4 C3          0.7096   -1.9467   -1.2147 C.3       1 <0>         0.0785
      5 C4          1.4150   -2.4327   -2.4546 C.2       1 <0>        -0.0120
      6 C5          2.7371   -2.7433   -2.4077 C.2       1 <0>        -0.1886
      7 S1          3.0195   -3.2412   -4.1021 S.3       1 <0>         0.1306
      8 C6          1.3498   -2.9818   -4.6866 C.2       1 <0>         0.1673
      9 N2          0.7518   -2.5617   -3.5803 N.2       1 <0>        -0.5016
     10 C7          0.7865   -3.1861   -6.0378 C.ar      1 <0>        -0.0828
     11 C8         -0.5599   -2.9133   -6.2841 C.ar      1 <0>        -0.0077
     12 C9         -1.0805   -3.1050   -7.5465 C.ar      1 <0>        -0.1629
     13 C10        -0.2699   -3.5679   -8.5715 C.ar      1 <0>         0.1693
     14 C11         1.0671   -3.8413   -8.3348 C.ar      1 <0>        -0.1876
     15 C12         1.6015   -3.6475   -7.0752 C.ar      1 <0>         0.1625
     16 F1          2.9071   -3.9085   -6.8460 F         1 <0>        -0.1150
     17 F2         -0.7863   -3.7536   -9.8060 F         1 <0>        -0.1145
     18 H1          1.0039    1.9031    0.0027 H         1 <0>         0.0805
     19 H2         -0.5459    1.8868   -0.8726 H         1 <0>         0.0807
     20 H3         -0.5289    1.8773    0.9072 H         1 <0>         0.1082
     21 H4          0.5293   -0.3651    0.8851 H         1 <0>         0.1325
     22 H5         -1.0205   -0.3814    0.0098 H         1 <0>         0.1327
     23 H6          0.2017   -0.1436   -2.0240 H         1 <0>         0.4308
     24 H7          1.2368   -2.3077   -0.3316 H         1 <0>         0.1460
     25 H8         -0.3130   -2.3239   -1.2069 H         1 <0>         0.1452
     26 H9          3.4263   -2.7012   -1.5774 H         1 <0>         0.2109
     27 H10        -1.1933   -2.5530   -5.4870 H         1 <0>         0.1565
     28 H11        -2.1224   -2.8944   -7.7371 H         1 <0>         0.1583
     29 H12         1.6940   -4.2020   -9.1369 H         1 <0>         0.1649
     30 H13         1.6363   -0.1286   -1.2138 H         1 <0>         0.4261
@<TRIPOS>BOND
     1    1    2 1
     2    1   18 1
     3    1   19 1
     4    1   20 1
     5    2    3 1
     6    2   21 1
     7    2   22 1
     8    3    4 1
     9    3   23 1
    10    3   30 1
    11    4    5 1
    12    4   24 1
    13    4   25 1
    14    5    9 1
    15    5    6 2
    16    6    7 1
    17    6   26 1
    18    7    8 1
    19    8    9 2
    20    8   10 1
    21   10   15 ar
    22   10   11 ar
    23   11   12 ar
    24   11   27 1
    25   12   13 ar
    26   12   28 1
    27   13   14 ar
    28   13   17 1
    29   14   15 ar
    30   14   29 1
    31   15   16 1
@<TRIPOS>MOLECULE
ZINC40999651
   33    34     0     0     0
SMALL
USER_CHARGES

@<TRIPOS>ATOM
      1 C1         -0.0187    1.5258    0.0104 C.3       1 <0>        -0.1563
      2 C2          0.0021   -0.0041    0.0020 C.3       1 <0>        -0.1515
      3 C3         -1.4333   -0.5336    0.0129 C.3       1 <0>        -0.0101
      4 N1         -1.4134   -2.0025    0.0048 N.4       1 <0>        -0.5086
      5 C4         -2.7915   -2.5110    0.0152 C.3       1 <0>         0.0788
      6 C5         -2.7711   -4.0178    0.0069 C.2       1 <0>        -0.0119
      7 C6         -2.8583   -4.7060    1.1755 C.2       1 <0>        -0.1878
      8 S1         -2.7866   -6.3887    0.5739 S.3       1 <0>         0.1346
      9 C7         -2.6487   -5.9930   -1.1643 C.2       1 <0>         0.1609
     10 N2         -2.6745   -4.6678   -1.1297 N.2       1 <0>        -0.4919
     11 C8         -2.5411   -6.8990   -2.3269 C.ar      1 <0>        -0.1086
     12 C9         -2.4353   -6.3752   -3.6181 C.ar      1 <0>         0.1799
     13 C10        -2.3350   -7.2291   -4.7003 C.ar      1 <0>        -0.1629
     14 C11        -2.3397   -8.5988   -4.5078 C.ar      1 <0>        -0.0270
     15 C12        -2.4445   -9.1249   -3.2330 C.ar      1 <0>        -0.1565
     16 C13        -2.5387   -8.2840   -2.1401 C.ar      1 <0>         0.1573
     17 F1         -2.6345   -8.7996   -0.8950 F         1 <0>        -0.1157
     18 F2         -2.4315   -5.0376   -3.8081 F         1 <0>        -0.1099
     19 H1          1.0039    1.9031    0.0027 H         1 <0>         0.0776
     20 H2         -0.5459    1.8868   -0.8726 H         1 <0>         0.0677
     21 H3         -0.5289    1.8773    0.9072 H         1 <0>         0.0674
     22 H4          0.5123   -0.3556   -0.8948 H         1 <0>         0.0863
     23 H5          0.5293   -0.3651    0.8851 H         1 <0>         0.0860
     24 H6         -1.9435   -0.1821    0.9097 H         1 <0>         0.1331
     25 H7         -1.9605   -0.1726   -0.8702 H         1 <0>         0.1333
     26 H8         -0.9411   -2.3279   -0.8254 H         1 <0>         0.4315
     27 H9         -3.3017   -2.1594    0.9120 H         1 <0>         0.1463
     28 H10        -3.3187   -2.1499   -0.8678 H         1 <0>         0.1454
     29 H11        -2.9459   -4.3385    2.1872 H         1 <0>         0.2116
     30 H12        -2.2532   -6.8258   -5.6989 H         1 <0>         0.1574
     31 H13        -2.2614   -9.2609   -5.3575 H         1 <0>         0.1588
     32 H14        -2.4481  -10.1955   -3.0907 H         1 <0>         0.1593
     33 H15        -0.9254   -2.3367    0.8222 H         1 <0>         0.4259
@<TRIPOS>BOND
     1    1    2 1
     2    1   19 1
     3    1   20 1
     4    1   21 1
     5    2    3 1
     6    2   22 1
     7    2   23 1
     8    3    4 1
     9    3   24 1
    10    3   25 1
    11    4    5 1
    12    4   26 1
    13    4   33 1
    14    5    6 1
    15    5   27 1
    16    5   28 1
    17    6   10 1
    18    6    7 2
    19    7    8 1
    20    7   29 1
    21    8    9 1
    22    9   10 2
    23    9   11 1
    24   11   16 ar
    25   11   12 ar
    26   12   13 ar
    27   12   18 1
    28   13   14 ar
    29   13   30 1
    30   14   15 ar
    31   14   31 1
    32   15   16 ar
    33   15   32 1
    34   16   17 1
@<TRIPOS>MOLECULE
ZINC88124705
   30    31     0     0     0
SMALL
USER_CHARGES

@<TRIPOS>ATOM
      1 C1          2.0154   -1.9932    2.0105 C.3       1 <0>        -0.1158
      2 C2          0.9783   -1.6823    0.9622 C.ar      1 <0>         0.0012
      3 C3          1.0388   -2.2946   -0.2723 C.ar      1 <0>        -0.1582
      4 C4          0.0859   -2.0096   -1.2371 C.ar      1 <0>         0.1445
      5 C5         -0.9325   -1.1087   -0.9676 C.ar      1 <0>        -0.1583
      6 C6         -1.0018   -0.4907    0.2631 C.ar      1 <0>        -0.0454
      7 C7         -0.0481   -0.7789    1.2407 C.ar      1 <0>        -0.0631
      8 C8         -0.1213   -0.1243    2.5644 C.2       1 <0>         0.2004
      9 N1         -0.0062   -0.6558    3.7734 N.2       1 <0>        -0.4897
     10 C9         -0.0982    0.0833    4.8542 C.2       1 <0>         0.0355
     11 C10        -0.3156    1.4205    4.7439 C.2       1 <0>        -0.2582
     12 S1         -0.3811    1.5986    2.9655 S.3       1 <0>         0.1045
     13 C11         0.0365   -0.5497    6.2151 C.3       1 <0>         0.1097
     14 H1          1.0461   -0.9427    6.3348 H         1 <0>         0.1576
     15 C12        -0.9741   -1.6906    6.3492 C.3       1 <0>        -0.1749
     16 N2         -0.2226    0.4583    7.2518 N.4       1 <0>        -0.6352
     17 F1          0.1498   -2.6116   -2.4448 F         1 <0>        -0.1240
     18 H2          1.6409   -2.7747    2.6716 H         1 <0>         0.0867
     19 H3          2.9304   -2.3345    1.5264 H         1 <0>         0.0773
     20 H4          2.2250   -1.0953    2.5918 H         1 <0>         0.0655
     21 H5          1.8304   -2.9970   -0.4875 H         1 <0>         0.1503
     22 H6         -1.6727   -0.8901   -1.7231 H         1 <0>         0.1512
     23 H7         -1.7955    0.2114    0.4720 H         1 <0>         0.1410
     24 H8         -0.4170    2.1687    5.5161 H         1 <0>         0.1978
     25 H9         -0.7819   -2.4385    5.5800 H         1 <0>         0.1154
     26 H10        -0.8767   -2.1484    7.3336 H         1 <0>         0.0879
     27 H11        -1.9838   -1.2976    6.2296 H         1 <0>         0.0804
     28 H12        -1.1572    0.8221    7.1411 H         1 <0>         0.4351
     29 H13        -0.1325    0.0345    8.1630 H         1 <0>         0.4441
     30 H14         0.4438    1.2107    7.1634 H         1 <0>         0.4367
@<TRIPOS>BOND
     1    1    2 1
     2    1   18 1
     3    1   19 1
     4    1   20 1
     5    2    7 ar
     6    2    3 ar
     7    3    4 ar
     8    3   21 1
     9    4    5 ar
    10    4   17 1
    11    5    6 ar
    12    5   22 1
    13    6    7 ar
    14    6   23 1
    15    7    8 1
    16    8   12 1
    17    8    9 2
    18    9   10 1
    19   10   11 2
    20   10   13 1
    21   11   12 1
    22   11   24 1
    23   13   14 1
    24   13   15 1
    25   13   16 1
    26   15   25 1
    27   15   26 1
    28   15   27 1
    29   16   28 1
    30   16   29 1
    31   16   30 1
@<TRIPOS>MOLECULE
ZINC36827733
   29    30     0     0     0
SMALL
USER_CHARGES

@<TRIPOS>ATOM
      1 C1         -0.0169    1.3914    0.0097 C.ar      1 <0>        -0.0566
      2 C2          1.1695    2.0947    0.0021 C.ar      1 <0>        -0.1512
      3 C3          2.3789    1.4182   -0.0135 C.ar      1 <0>         0.1308
      4 C4          2.4033    0.0326   -0.0212 C.ar      1 <0>        -0.1540
      5 C5          1.2228   -0.6804   -0.0137 C.ar      1 <0>        -0.0344
      6 C6          0.0021   -0.0041    0.0020 C.ar      1 <0>        -0.0439
      7 C7         -1.2666   -0.7632    0.0105 C.2       1 <0>         0.1740
      8 N1         -1.4625   -2.0744    0.0109 N.2       1 <0>        -0.4981
      9 C8         -2.6728   -2.5824    0.0199 C.2       1 <0>         0.0020
     10 C9         -3.7535   -1.7580    0.0291 C.2       1 <0>        -0.1755
     11 S1         -2.9497   -0.1603    0.0311 S.3       1 <0>         0.0755
     12 C10        -2.8638   -4.0772    0.0196 C.3       1 <0>         0.0728
     13 N2         -2.8166   -4.5766   -1.3611 N.4       1 <0>        -0.4825
     14 C11        -3.0028   -6.0337   -1.3614 C.3       1 <0>        -0.0831
     15 C12        -2.9544   -6.5460   -2.7779 C.2       1 <0>         0.4838
     16 O1         -2.7808   -5.7693   -3.7015 O.co2     1 <0>        -0.6754
     17 O2         -3.0888   -7.7372   -3.0002 O.co2     1 <0>        -0.6392
     18 F1          3.5381    2.1119   -0.0217 F         1 <0>        -0.1284
     19 H1         -0.9588    1.9196    0.0260 H         1 <0>         0.1388
     20 H2          1.1559    3.1746    0.0081 H         1 <0>         0.1489
     21 H3          3.3485   -0.4898   -0.0334 H         1 <0>         0.1487
     22 H4          1.2429   -1.7602   -0.0204 H         1 <0>         0.1475
     23 H5         -4.8058   -2.0005    0.0368 H         1 <0>         0.2110
     24 H6         -2.0705   -4.5450    0.6025 H         1 <0>         0.1390
     25 H7         -3.8305   -4.3200    0.4609 H         1 <0>         0.1399
     26 H8         -3.5510   -4.1435   -1.9007 H         1 <0>         0.4254
     27 H9         -2.2095   -6.5016   -0.7785 H         1 <0>         0.1271
     28 H10        -3.9695   -6.2766   -0.9201 H         1 <0>         0.1269
     29 H11        -1.9218   -4.3518   -1.7696 H         1 <0>         0.4303
@<TRIPOS>BOND
     1    1    6 ar
     2    1    2 ar
     3    1   19 1
     4    2    3 ar
     5    2   20 1
     6    3    4 ar
     7    3   18 1
     8    4    5 ar
     9    4   21 1
    10    5    6 ar
    11    5   22 1
    12    6    7 1
    13    7   11 1
    14    7    8 2
    15    8    9 1
    16    9   10 2
    17    9   12 1
    18   10   11 1
    19   10   23 1
    20   12   13 1
    21   12   24 1
    22   12   25 1
    23   13   14 1
    24   13   26 1
    25   13   29 1
    26   14   15 1
    27   14   27 1
    28   14   28 1
    29   15   16 2
    30   15   17 1
@<TRIPOS>MOLECULE
ZINC35163461
   37    38     0     0     0
SMALL
USER_CHARGES

@<TRIPOS>ATOM
      1 C1         -0.0187    1.5258    0.0104 C.3       1 <0>        -0.1727
      2 C2          0.0021   -0.0041    0.0020 C.3       1 <0>         0.0542
      3 C3          0.7421   -0.5109    1.2415 C.3       1 <0>        -0.1721
      4 C4         -1.4333   -0.5336    0.0129 C.3       1 <0>         0.0672
      5 O1         -2.1022   -0.0728    1.1886 O.3       1 <0>        -0.5521
      6 N1          0.6897   -0.4778   -1.2066 N.4       1 <0>        -0.5001
      7 C5          2.0678    0.0307   -1.2170 C.3       1 <0>         0.0715
      8 C6          2.7732   -0.4553   -2.4569 C.2       1 <0>        -0.0061
      9 C7          2.8244    0.3320   -3.5638 C.2       1 <0>        -0.1815
     10 S1          3.7497   -0.7206   -4.6749 S.3       1 <0>         0.0973
     11 C8          3.9666   -2.0907   -3.5468 C.2       1 <0>         0.1838
     12 N2          3.3437   -1.6374   -2.4680 N.2       1 <0>        -0.5072
     13 C9          4.6590   -3.3798   -3.7585 C.ar      1 <0>        -0.0546
     14 C10         4.7068   -4.3256   -2.7332 C.ar      1 <0>        -0.0332
     15 C11         5.3540   -5.5265   -2.9359 C.ar      1 <0>        -0.1555
     16 C12         5.9566   -5.7947   -4.1547 C.ar      1 <0>         0.1391
     17 C13         5.9120   -4.8590   -5.1761 C.ar      1 <0>        -0.1500
     18 C14         5.2621   -3.6575   -4.9860 C.ar      1 <0>        -0.0533
     19 F1          6.5900   -6.9722   -4.3477 F         1 <0>        -0.1240
     20 H1          1.0039    1.9031    0.0027 H         1 <0>         0.0825
     21 H2         -0.5459    1.8868   -0.8726 H         1 <0>         0.0807
     22 H3         -0.5289    1.8773    0.9072 H         1 <0>         0.1145
     23 H4          0.2319   -0.1594    2.1383 H         1 <0>         0.1138
     24 H5          0.7568   -1.6008    1.2356 H         1 <0>         0.0810
     25 H6          1.7647   -0.1336    1.2338 H         1 <0>         0.0826
     26 H7         -1.9605   -0.1726   -0.8702 H         1 <0>         0.0687
     27 H8         -1.4185   -1.6235    0.0069 H         1 <0>         0.0689
     28 H9         -3.0191   -0.3710    1.2619 H         1 <0>         0.4061
     29 H10         0.7033   -1.4867   -1.2121 H         1 <0>         0.4299
     30 H11         2.0530    1.1205   -1.2110 H         1 <0>         0.1489
     31 H12         2.5950   -0.3304   -0.3340 H         1 <0>         0.1492
     32 H13         2.4186    1.3194   -3.7271 H         1 <0>         0.2108
     33 H14         4.2381   -4.1173   -1.7828 H         1 <0>         0.1454
     34 H15         5.3916   -6.2590   -2.1432 H         1 <0>         0.1501
     35 H16         6.3832   -5.0730   -6.1240 H         1 <0>         0.1519
     36 H17         5.2238   -2.9310   -5.7843 H         1 <0>         0.1394
     37 H18         0.2017   -0.1436   -2.0240 H         1 <0>         0.4248
@<TRIPOS>BOND
     1    1    2 1
     2    1   20 1
     3    1   21 1
     4    1   22 1
     5    2    3 1
     6    2    4 1
     7    2    6 1
     8    3   23 1
     9    3   24 1
    10    3   25 1
    11    4    5 1
    12    4   26 1
    13    4   27 1
    14    5   28 1
    15    6    7 1
    16    6   29 1
    17    6   37 1
    18    7    8 1
    19    7   30 1
    20    7   31 1
    21    8   12 1
    22    8    9 2
    23    9   10 1
    24    9   32 1
    25   10   11 1
    26   11   12 2
    27   11   13 1
    28   13   18 ar
    29   13   14 ar
    30   14   15 ar
    31   14   33 1
    32   15   16 ar
    33   15   34 1
    34   16   17 ar
    35   16   19 1
    36   17   18 ar
    37   17   35 1
    38   18   36 1
@<TRIPOS>MOLECULE
ZINC36893226
   20    21     0     0     0
SMALL
USER_CHARGES

@<TRIPOS>ATOM
      1 C1         -0.0168    1.3909    0.0097 C.ar      1 <0>        -0.0901
      2 C2          1.1698    2.0948    0.0021 C.ar      1 <0>        -0.0943
      3 C3          2.3782    1.4199   -0.0130 C.ar      1 <0>        -0.0309
      4 C4          2.4038    0.0341   -0.0207 C.ar      1 <0>        -0.0267
      5 C5          1.2227   -0.6801   -0.0133 C.ar      1 <0>        -0.0623
      6 C6          0.0021   -0.0041    0.0020 C.ar      1 <0>         0.0350
      7 C7         -1.2671   -0.7636    0.0105 C.2       1 <0>         0.0532
      8 N1         -1.4529   -2.0697    0.0108 N.2       1 <0>        -0.4090
      9 C8         -2.6961   -2.5345    0.0193 C.2       1 <0>        -0.0128
     10 C9         -3.7421   -1.6313    0.0277 C.2       1 <0>        -0.2081
     11 S1         -2.9421   -0.1505    0.0311 S.3       1 <0>         0.0909
     12 C10        -2.9551   -3.9802    0.0195 C.2       1 <0>         0.5469
     13 O1         -2.0196   -4.7695    0.0121 O.co2     1 <0>        -0.6622
     14 O2         -4.1063   -4.3957    0.0270 O.co2     1 <0>        -0.6827
     15 Cl1         3.9237   -0.8045   -0.0403 Cl        1 <0>        -0.0449
     16 Cl2         3.8672    2.3124   -0.0230 Cl        1 <0>        -0.0524
     17 H1         -0.9588    1.9189    0.0260 H         1 <0>         0.1426
     18 H2          1.1558    3.1747    0.0077 H         1 <0>         0.1479
     19 H3          1.2432   -1.7599   -0.0196 H         1 <0>         0.1586
     20 H4         -4.8043   -1.8263    0.0349 H         1 <0>         0.2012
@<TRIPOS>BOND
     1    1    6 ar
     2    1    2 ar
     3    1   17 1
     4    2    3 ar
     5    2   18 1
     6    3    4 ar
     7    3   16 1
     8    4    5 ar
     9    4   15 1
    10    5    6 ar
    11    5   19 1
    12    6    7 1
    13    7   11 1
    14    7    8 2
    15    8    9 1
    16    9   10 2
    17    9   12 1
    18   10   11 1
    19   10   20 1
    20   12   13 2
    21   12   14 1
@<TRIPOS>MOLECULE
ZINC87750889
   35    36     0     0     0
SMALL
USER_CHARGES

@<TRIPOS>ATOM
      1 C1         -0.0169    1.3914    0.0097 C.ar      1 <0>        -0.0536
      2 C2          1.1695    2.0947    0.0021 C.ar      1 <0>        -0.1498
      3 C3          2.3789    1.4182   -0.0135 C.ar      1 <0>         0.1384
      4 C4          2.4033    0.0326   -0.0212 C.ar      1 <0>        -0.1555
      5 C5          1.2228   -0.6804   -0.0137 C.ar      1 <0>        -0.0336
      6 C6          0.0021   -0.0041    0.0020 C.ar      1 <0>        -0.0535
      7 C7         -1.2666   -0.7632    0.0105 C.2       1 <0>         0.1820
      8 N1         -1.4625   -2.0744    0.0109 N.2       1 <0>        -0.5074
      9 C8         -2.6728   -2.5824    0.0199 C.2       1 <0>        -0.0070
     10 C9         -3.7535   -1.7580    0.0291 C.2       1 <0>        -0.1778
     11 S1         -2.9497   -0.1603    0.0311 S.3       1 <0>         0.0973
     12 C10        -2.8638   -4.0772    0.0196 C.3       1 <0>         0.0736
     13 N2         -2.8166   -4.5766   -1.3611 N.4       1 <0>        -0.5010
     14 C11        -3.0028   -6.0337   -1.3614 C.3       1 <0>         0.0339
     15 C12        -4.4083   -6.3683   -0.8579 C.3       1 <0>         0.0533
     16 O1         -5.3771   -5.8632   -1.7789 O.3       1 <0>        -0.5502
     17 C13        -2.8298   -6.5697   -2.7840 C.3       1 <0>         0.0548
     18 O2         -3.8709   -6.0553   -3.6168 O.3       1 <0>        -0.5518
     19 F1          3.5381    2.1119   -0.0217 F         1 <0>        -0.1243
     20 H1         -0.9588    1.9196    0.0260 H         1 <0>         0.1395
     21 H2          1.1559    3.1746    0.0081 H         1 <0>         0.1518
     22 H3          3.3485   -0.4898   -0.0334 H         1 <0>         0.1499
     23 H4          1.2429   -1.7602   -0.0204 H         1 <0>         0.1452
     24 H5         -4.8058   -2.0005    0.0368 H         1 <0>         0.2105
     25 H6         -2.0705   -4.5450    0.6025 H         1 <0>         0.1449
     26 H7         -3.8305   -4.3200    0.4609 H         1 <0>         0.1440
     27 H8         -3.5510   -4.1435   -1.9007 H         1 <0>         0.4386
     28 H9         -2.2631   -6.4947   -0.7070 H         1 <0>         0.1607
     29 H10        -4.5162   -7.4497   -0.7737 H         1 <0>         0.0911
     30 H11        -4.5627   -5.9107    0.1193 H         1 <0>         0.0684
     31 H12        -6.2927   -6.0395   -1.5227 H         1 <0>         0.3985
     32 H13        -1.8624   -6.2551   -3.1756 H         1 <0>         0.0690
     33 H14        -2.8797   -7.6585   -2.7707 H         1 <0>         0.0920
     34 H15        -3.8239   -6.3544   -4.5352 H         1 <0>         0.3989
     35 H16        -1.9218   -4.3518   -1.7696 H         1 <0>         0.4291
@<TRIPOS>BOND
     1    1    6 ar
     2    1    2 ar
     3    1   20 1
     4    2    3 ar
     5    2   21 1
     6    3    4 ar
     7    3   19 1
     8    4    5 ar
     9    4   22 1
    10    5    6 ar
    11    5   23 1
    12    6    7 1
    13    7   11 1
    14    7    8 2
    15    8    9 1
    16    9   10 2
    17    9   12 1
    18   10   11 1
    19   10   24 1
    20   12   13 1
    21   12   25 1
    22   12   26 1
    23   13   14 1
    24   13   27 1
    25   13   35 1
    26   14   15 1
    27   14   17 1
    28   14   28 1
    29   15   16 1
    30   15   29 1
    31   15   30 1
    32   16   31 1
    33   17   18 1
    34   17   32 1
    35   17   33 1
    36   18   34 1
@<TRIPOS>MOLECULE
ZINC87750889
   34    35     0     0     0
SMALL
USER_CHARGES

@<TRIPOS>ATOM
      1 C1         -0.0169    1.3914    0.0097 C.ar      1 <0>        -0.0626
      2 C2          1.1695    2.0947    0.0021 C.ar      1 <0>        -0.1514
      3 C3          2.3789    1.4182   -0.0135 C.ar      1 <0>         0.1194
      4 C4          2.4033    0.0326   -0.0212 C.ar      1 <0>        -0.1537
      5 C5          1.2228   -0.6804   -0.0137 C.ar      1 <0>        -0.0393
      6 C6          0.0021   -0.0041    0.0020 C.ar      1 <0>        -0.0273
      7 C7         -1.2666   -0.7632    0.0105 C.2       1 <0>         0.1543
      8 N1         -1.4625   -2.0744    0.0109 N.2       1 <0>        -0.4761
      9 C8         -2.6728   -2.5824    0.0199 C.2       1 <0>         0.0671
     10 C9         -3.7535   -1.7580    0.0291 C.2       1 <0>        -0.1959
     11 S1         -2.9497   -0.1603    0.0311 S.3       1 <0>         0.0164
     12 C10        -2.8638   -4.0772    0.0196 C.3       1 <0>         0.1252
     13 N2         -2.8166   -4.5766   -1.3611 N.3       1 <0>        -0.6679
     14 C11        -2.9997   -6.0336   -1.4005 C.3       1 <0>         0.0898
     15 C12        -4.4945   -6.3599   -1.4032 C.3       1 <0>         0.0467
     16 O1         -5.0864   -5.8718   -2.6088 O.3       1 <0>        -0.5407
     17 C13        -2.3529   -6.5948   -2.6684 C.3       1 <0>         0.0906
     18 O2         -3.0429   -6.0959   -3.8160 O.3       1 <0>        -0.5435
     19 F1          3.5381    2.1119   -0.0217 F         1 <0>        -0.1328
     20 H1         -0.9588    1.9196    0.0260 H         1 <0>         0.1376
     21 H2          1.1559    3.1746    0.0081 H         1 <0>         0.1455
     22 H3          3.3485   -0.4898   -0.0334 H         1 <0>         0.1453
     23 H4          1.2429   -1.7602   -0.0204 H         1 <0>         0.1475
     24 H5         -4.8058   -2.0005    0.0368 H         1 <0>         0.1977
     25 H6         -2.0705   -4.5450    0.6025 H         1 <0>         0.0886
     26 H7         -3.8305   -4.3200    0.4609 H         1 <0>         0.0454
     27 H8         -2.5314   -6.4824   -0.5245 H         1 <0>         0.1008
     28 H9         -4.6308   -7.4396   -1.3428 H         1 <0>         0.0466
     29 H10        -4.9716   -5.8849   -0.5460 H         1 <0>         0.0390
     30 H11        -6.0354   -6.0439   -2.6788 H         1 <0>         0.3700
     31 H12        -1.3081   -6.2867   -2.7103 H         1 <0>         0.0505
     32 H13        -2.4105   -7.6832   -2.6545 H         1 <0>         0.0417
     33 H14        -2.6859   -6.4113   -4.6576 H         1 <0>         0.3679
     34 H15        -3.5008   -4.1104   -1.9378 H         1 <0>         0.3577
@<TRIPOS>BOND
     1    1    6 ar
     2    1    2 ar
     3    1   20 1
     4    2    3 ar
     5    2   21 1
     6    3    4 ar
     7    3   19 1
     8    4    5 ar
     9    4   22 1
    10    5    6 ar
    11    5   23 1
    12    6    7 1
    13    7   11 1
    14    7    8 2
    15    8    9 1
    16    9   10 2
    17    9   12 1
    18   10   11 1
    19   10   24 1
    20   12   13 1
    21   12   25 1
    22   12   26 1
    23   13   14 1
    24   13   34 1
    25   14   15 1
    26   14   17 1
    27   14   27 1
    28   15   16 1
    29   15   28 1
    30   15   29 1
    31   16   30 1
    32   17   18 1
    33   17   31 1
    34   17   32 1
    35   18   33 1
@<TRIPOS>MOLECULE
ZINC88124704
   30    31     0     0     0
SMALL
USER_CHARGES

@<TRIPOS>ATOM
      1 C1          2.0156   -1.9930    2.0104 C.3       1 <0>        -0.1139
      2 C2          0.9784   -1.6822    0.9622 C.ar      1 <0>        -0.0060
      3 C3          1.0388   -2.2945   -0.2724 C.ar      1 <0>        -0.1574
      4 C4          0.0859   -2.0096   -1.2371 C.ar      1 <0>         0.1423
      5 C5         -0.9325   -1.1088   -0.9676 C.ar      1 <0>        -0.1556
      6 C6         -1.0019   -0.4908    0.2632 C.ar      1 <0>        -0.0468
      7 C7         -0.0481   -0.7789    1.2407 C.ar      1 <0>        -0.0569
      8 C8         -0.1213   -0.1243    2.5644 C.2       1 <0>         0.1858
      9 N1         -0.0062   -0.6558    3.7734 N.2       1 <0>        -0.5031
     10 C9         -0.0982    0.0833    4.8542 C.2       1 <0>        -0.0129
     11 C10        -0.3156    1.4205    4.7439 C.2       1 <0>        -0.1729
     12 S1         -0.3811    1.5986    2.9655 S.3       1 <0>         0.0978
     13 C11         0.0365   -0.5497    6.2151 C.3       1 <0>         0.1175
     14 H1         -0.1558    0.1982    6.9844 H         1 <0>         0.1532
     15 C12        -0.9741   -1.6906    6.3492 C.3       1 <0>        -0.1774
     16 N2          1.3971   -1.0794    6.3764 N.4       1 <0>        -0.6345
     17 F1          0.1498   -2.6116   -2.4448 F         1 <0>        -0.1241
     18 H2          1.6411   -2.7746    2.6715 H         1 <0>         0.0825
     19 H3          2.9306   -2.3342    1.5263 H         1 <0>         0.0775
     20 H4          2.2251   -1.0950    2.5916 H         1 <0>         0.0630
     21 H5          1.8305   -2.9969   -0.4876 H         1 <0>         0.1492
     22 H6         -1.6728   -0.8902   -1.7230 H         1 <0>         0.1513
     23 H7         -1.7956    0.2112    0.4721 H         1 <0>         0.1415
     24 H8         -0.4170    2.1687    5.5161 H         1 <0>         0.2103
     25 H9         -0.8767   -2.1484    7.3336 H         1 <0>         0.0861
     26 H10        -1.9838   -1.2976    6.2296 H         1 <0>         0.1037
     27 H11        -0.7819   -2.4385    5.5800 H         1 <0>         0.0902
     28 H12         2.0636   -0.3270    6.2879 H         1 <0>         0.4346
     29 H13         1.4873   -1.5032    7.2876 H         1 <0>         0.4377
     30 H14         1.5751   -1.7717    5.6643 H         1 <0>         0.4372
@<TRIPOS>BOND
     1    1    2 1
     2    1   18 1
     3    1   19 1
     4    1   20 1
     5    2    7 ar
     6    2    3 ar
     7    3    4 ar
     8    3   21 1
     9    4    5 ar
    10    4   17 1
    11    5    6 ar
    12    5   22 1
    13    6    7 ar
    14    6   23 1
    15    7    8 1
    16    8   12 1
    17    8    9 2
    18    9   10 1
    19   10   11 2
    20   10   13 1
    21   11   12 1
    22   11   24 1
    23   13   14 1
    24   13   15 1
    25   13   16 1
    26   15   25 1
    27   15   26 1
    28   15   27 1
    29   16   28 1
    30   16   29 1
    31   16   30 1
@<TRIPOS>MOLECULE
ZINC04390704
   40    42     0     0     0
SMALL
USER_CHARGES
4-(3,4-dichlorophenyl)-2-(4-tert-butylphenyl)-thiazole
@<TRIPOS>ATOM
      1 C1          3.2462    3.5782   -1.2590 C.3       1 <0>        -0.1405
      2 C2          2.4523    3.9331   -0.0002 C.3       1 <0>        -0.0339
      3 C3          2.1580    5.4345    0.0107 C.3       1 <0>        -0.1475
      4 C4          3.2701    3.5647    1.2393 C.3       1 <0>        -0.1405
      5 C5          1.1548    3.1667    0.0081 C.ar      1 <0>        -0.0449
      6 C6          1.1718    1.7833    0.0004 C.ar      1 <0>        -0.1144
      7 C7         -0.0126    1.0758    0.0080 C.ar      1 <0>        -0.0853
      8 C8         -1.2296    1.7586    0.0174 C.ar      1 <0>        -0.0290
      9 C9         -1.2398    3.1540    0.0300 C.ar      1 <0>        -0.0632
     10 C10        -0.0484    3.8496    0.0228 C.ar      1 <0>        -0.1228
     11 C11        -2.5029    1.0067    0.0189 C.2       1 <0>         0.1707
     12 N1         -3.7450    1.4631    0.0325 N.2       1 <0>        -0.4931
     13 C12        -4.7776    0.6416    0.0267 C.2       1 <0>         0.0982
     14 C13        -4.5606   -0.7119    0.0184 C.2       1 <0>        -0.1918
     15 S1         -2.7730   -0.7603    0.0105 S.3       1 <0>         0.0324
     16 C14        -6.1609    1.1778    0.0361 C.ar      1 <0>        -0.0065
     17 C15        -6.3768    2.5549    0.0445 C.ar      1 <0>        -0.0700
     18 C16        -7.6650    3.0493    0.0527 C.ar      1 <0>        -0.0985
     19 C17        -8.7427    2.1805    0.0531 C.ar      1 <0>        -0.0271
     20 C18        -8.5340    0.8110    0.0453 C.ar      1 <0>        -0.0302
     21 C19        -7.2482    0.3066    0.0307 C.ar      1 <0>        -0.0870
     22 Cl1        -9.8903   -0.2726    0.0464 Cl        1 <0>        -0.0427
     23 Cl2       -10.3609    2.8091    0.0641 Cl        1 <0>        -0.0442
     24 H1          2.6636    3.8406   -2.1421 H         1 <0>         0.0579
     25 H2          4.1848    4.1325   -1.2650 H         1 <0>         0.0615
     26 H3          3.4559    2.5086   -1.2668 H         1 <0>         0.0583
     27 H4          1.5924    5.6873    0.9076 H         1 <0>         0.0605
     28 H5          3.0965    5.9888    0.0048 H         1 <0>         0.0612
     29 H6          1.5754    5.6969   -0.8723 H         1 <0>         0.0605
     30 H7          3.4798    2.4951    1.2315 H         1 <0>         0.0583
     31 H8          4.2087    4.1190    1.2333 H         1 <0>         0.0615
     32 H9          2.7045    3.8175    2.1361 H         1 <0>         0.0580
     33 H10         2.1144    1.2562   -0.0111 H         1 <0>         0.1312
     34 H11         0.0021   -0.0041    0.0020 H         1 <0>         0.1271
     35 H12        -2.1784    3.6882    0.0408 H         1 <0>         0.1355
     36 H13        -0.0549    4.9296    0.0284 H         1 <0>         0.1364
     37 H14        -5.2722   -1.5243    0.0174 H         1 <0>         0.2030
     38 H15        -5.5370    3.2339    0.0442 H         1 <0>         0.1490
     39 H16        -7.8328    4.1162    0.0592 H         1 <0>         0.1474
     40 H17        -7.0860   -0.7611    0.0197 H         1 <0>         0.1445
@<TRIPOS>BOND
     1    1    2 1
     2    1   24 1
     3    1   25 1
     4    1   26 1
     5    2    3 1
     6    2    4 1
     7    2    5 1
     8    3   27 1
     9    3   28 1
    10    3   29 1
    11    4   30 1
    12    4   31 1
    13    4   32 1
    14    5   10 ar
    15    5    6 ar
    16    6    7 ar
    17    6   33 1
    18    7    8 ar
    19    7   34 1
    20    8    9 ar
    21    8   11 1
    22    9   10 ar
    23    9   35 1
    24   10   36 1
    25   11   15 1
    26   11   12 2
    27   12   13 1
    28   13   14 2
    29   13   16 1
    30   14   15 1
    31   14   37 1
    32   16   21 ar
    33   16   17 ar
    34   17   18 ar
    35   17   38 1
    36   18   19 ar
    37   18   39 1
    38   19   20 ar
    39   19   23 1
    40   20   21 ar
    41   20   22 1
    42   21   40 1
@<TRIPOS>MOLECULE
ZINC00138069
   35    37     0     0     0
SMALL
USER_CHARGES
4-[[2-(4-chlorophenyl)thiazol-4-yl]methyl]morpholine
@<TRIPOS>ATOM
      1 C1          0.8156    5.5644    5.0910 C.ar      1 <0>        -0.0507
      2 C2          1.1849    6.7753    5.6388 C.ar      1 <0>        -0.1112
      3 C3          0.5354    7.2566    6.7631 C.ar      1 <0>        -0.0055
      4 C4         -0.4913    6.5289    7.3409 C.ar      1 <0>        -0.1060
      5 C5         -0.8729    5.3192    6.7989 C.ar      1 <0>        -0.0708
      6 C6         -0.2220    4.8291    5.6658 C.ar      1 <0>        -0.0389
      7 C7         -0.6260    3.5329    5.0803 C.2       1 <0>         0.1799
      8 N1         -0.1410    2.9006    4.0209 N.2       1 <0>        -0.5052
      9 C8         -0.6250    1.7422    3.6382 C.2       1 <0>        -0.0039
     10 C9         -1.6469    1.1729    4.3306 C.2       1 <0>        -0.1820
     11 S1         -1.8996    2.3957    5.6111 S.3       1 <0>         0.0983
     12 C10        -0.0527    1.0474    2.4296 C.3       1 <0>         0.0805
     13 C11        -0.0127    1.0858    0.0080 C.3       1 <0>        -0.0375
     14 C12        -0.7549    1.5938   -1.2309 C.3       1 <0>         0.0352
     15 O1         -0.8367    3.0207   -1.1797 O.3       1 <0>        -0.3560
     16 C13        -1.5041    3.5178   -0.0166 C.3       1 <0>         0.0362
     17 C14        -0.7695    3.0293    1.2346 C.3       1 <0>        -0.0313
     18 Cl1         1.0106    8.7779    7.4512 Cl        1 <0>        -0.0427
     19 H1          1.3255    5.1881    4.2165 H         1 <0>         0.1441
     20 H2          1.9849    7.3472    5.1924 H         1 <0>         0.1477
     21 H3         -0.9940    6.9090    8.2180 H         1 <0>         0.1494
     22 H4         -1.6735    4.7524    7.2506 H         1 <0>         0.1384
     23 H5         -2.1627    0.2401    4.1564 H         1 <0>         0.2107
     24 H6         -0.2288   -0.0253    2.5099 H         1 <0>         0.1445
     25 H7          1.0193    1.2365    2.3754 H         1 <0>         0.1451
     26 H8          0.0021   -0.0041    0.0020 H         1 <0>         0.1424
     27 H9          1.0097    1.4637    0.0003 H         1 <0>         0.1415
     28 H10        -0.2145    1.2922   -2.1281 H         1 <0>         0.1425
     29 H11        -1.7596    1.1716   -1.2520 H         1 <0>         0.0805
     30 H12        -1.5054    4.6077   -0.0357 H         1 <0>         0.1400
     31 H13        -2.5310    3.1528   -0.0024 H         1 <0>         0.0784
     32 H14         0.2406    3.4389    1.2469 H         1 <0>         0.1431
     33 H15        -1.3066    3.3587    2.1240 H         1 <0>         0.1327
     34 N2         -0.7282    1.5516    1.2142 N.4       1 <0>        -0.3939
     35 H16        -1.6893    1.1908    1.1927 H         1 <0>         0.4245
@<TRIPOS>BOND
     1    1    6 ar
     2    1    2 ar
     3    1   19 1
     4    2    3 ar
     5    2   20 1
     6    3    4 ar
     7    3   18 1
     8    4    5 ar
     9    4   21 1
    10    5    6 ar
    11    5   22 1
    12    6    7 1
    13    7   11 1
    14    7    8 2
    15    8    9 1
    16    9   10 2
    17    9   12 1
    18   10   11 1
    19   10   23 1
    20   12   24 1
    21   12   25 1
    22   12   34 1
    23   13   14 1
    24   13   26 1
    25   13   27 1
    26   13   34 1
    27   14   15 1
    28   14   28 1
    29   14   29 1
    30   15   16 1
    31   16   17 1
    32   16   30 1
    33   16   31 1
    34   17   32 1
    35   17   33 1
    36   17   34 1
    37   34   35 1
@<TRIPOS>MOLECULE
ZINC20414099
   34    36     0     0     0
SMALL
USER_CHARGES
4-[[2-(4-chlorophenyl)thiazol-4-yl]methyl]morpholine
@<TRIPOS>ATOM
      1 C1          0.8156    5.5644    5.0910 C.ar      1 <0>        -0.0579
      2 C2          1.1849    6.7753    5.6388 C.ar      1 <0>        -0.1097
      3 C3          0.5354    7.2566    6.7631 C.ar      1 <0>        -0.0180
      4 C4         -0.4913    6.5289    7.3409 C.ar      1 <0>        -0.1072
      5 C5         -0.8729    5.3192    6.7989 C.ar      1 <0>        -0.0793
      6 C6         -0.2220    4.8291    5.6658 C.ar      1 <0>        -0.0122
      7 C7         -0.6260    3.5329    5.0803 C.2       1 <0>         0.1493
      8 N1         -0.1410    2.9006    4.0209 N.2       1 <0>        -0.4884
      9 C8         -0.6250    1.7422    3.6382 C.2       1 <0>         0.0551
     10 C9         -1.6469    1.1729    4.3306 C.2       1 <0>        -0.1729
     11 S1         -1.8996    2.3957    5.6111 S.3       1 <0>         0.0212
     12 C10        -0.0527    1.0474    2.4296 C.3       1 <0>         0.1229
     13 N2         -0.7025    1.5608    1.2163 N.3       1 <0>        -0.5316
     14 C11        -0.0127    1.0858    0.0080 C.3       1 <0>         0.0160
     15 C12        -0.7549    1.5938   -1.2309 C.3       1 <0>         0.0620
     16 O1         -0.8367    3.0207   -1.1797 O.3       1 <0>        -0.3843
     17 C13        -1.5041    3.5178   -0.0166 C.3       1 <0>         0.0609
     18 C14        -0.7695    3.0293    1.2346 C.3       1 <0>         0.0243
     19 Cl1         1.0106    8.7779    7.4512 Cl        1 <0>        -0.0584
     20 H1          1.3255    5.1881    4.2165 H         1 <0>         0.1446
     21 H2          1.9849    7.3472    5.1924 H         1 <0>         0.1431
     22 H3         -0.9940    6.9090    8.2180 H         1 <0>         0.1437
     23 H4         -1.6735    4.7524    7.2506 H         1 <0>         0.1372
     24 H5         -2.1627    0.2401    4.1564 H         1 <0>         0.2023
     25 H6          1.0292    1.2384    2.3750 H         1 <0>         0.0550
     26 H7         -0.2303   -0.0351    2.5106 H         1 <0>         0.0959
     27 H8          1.0192    1.4669    0.0012 H         1 <0>         0.0461
     28 H9          0.0026   -0.0141    0.0029 H         1 <0>         0.0892
     29 H10        -0.2096    1.2881   -2.1360 H         1 <0>         0.1011
     30 H11        -1.7685    1.1670   -1.2518 H         1 <0>         0.0607
     31 H12        -1.5062    4.6176   -0.0370 H         1 <0>         0.0985
     32 H13        -2.5405    3.1494   -0.0030 H         1 <0>         0.0583
     33 H14        -1.3115    3.3604    2.1327 H         1 <0>         0.0838
     34 H15         0.2498    3.4427    1.2482 H         1 <0>         0.0485
@<TRIPOS>BOND
     1    1    6 ar
     2    1    2 ar
     3    1   20 1
     4    2    3 ar
     5    2   21 1
     6    3    4 ar
     7    3   19 1
     8    4    5 ar
     9    4   22 1
    10    5    6 ar
    11    5   23 1
    12    6    7 1
    13    7   11 1
    14    7    8 2
    15    8    9 1
    16    9   10 2
    17    9   12 1
    18   10   11 1
    19   10   24 1
    20   12   13 1
    21   12   25 1
    22   12   26 1
    23   13   18 1
    24   13   14 1
    25   14   15 1
    26   14   27 1
    27   14   28 1
    28   15   16 1
    29   15   29 1
    30   15   30 1
    31   16   17 1
    32   17   18 1
    33   17   31 1
    34   17   32 1
    35   18   33 1
    36   18   34 1
@<TRIPOS>MOLECULE
ZINC43392661
   33    34     0     0     0
SMALL
USER_CHARGES

@<TRIPOS>ATOM
      1 C1         -0.0187    1.5258    0.0104 C.3       1 <0>        -0.1845
      2 C2          0.0021   -0.0041    0.0020 C.3       1 <0>         0.0246
      3 C3          0.7421   -0.5109    1.2415 C.3       1 <0>        -0.1859
      4 N1         -1.3761   -0.5125    0.0124 N.4       1 <0>        -0.5070
      5 C4         -1.3591   -1.9758   -0.1163 C.3       1 <0>         0.0734
      6 C5         -2.7729   -2.4974   -0.1056 C.2       1 <0>        -0.0105
      7 C6         -3.4210   -2.7315   -1.2773 C.2       1 <0>        -0.1717
      8 S1         -4.9987   -3.3160   -0.6707 S.3       1 <0>         0.1230
      9 C7         -4.6237   -3.1851    1.0727 C.2       1 <0>         0.1632
     10 N2         -3.3786   -2.7315    1.0351 N.2       1 <0>        -0.4932
     11 C8         -5.4719   -3.5025    2.2414 C.ar      1 <0>         0.0146
     12 C9         -4.9791   -3.3195    3.5340 C.ar      1 <0>        -0.0858
     13 C10        -5.7754   -3.6169    4.6231 C.ar      1 <0>         0.1056
     14 C11        -7.0629   -4.0972    4.4331 C.ar      1 <0>         0.0657
     15 C12        -7.5567   -4.2810    3.1499 C.ar      1 <0>         0.1115
     16 C13        -6.7697   -3.9804    2.0550 C.ar      1 <0>        -0.1072
     17 F1         -8.8110   -4.7499    2.9706 F         1 <0>        -0.1039
     18 F2         -7.8379   -4.3871    5.5010 F         1 <0>        -0.1010
     19 F3         -5.2993   -3.4401    5.8750 F         1 <0>        -0.1058
     20 H1          1.0039    1.9031    0.0027 H         1 <0>         0.1082
     21 H2         -0.5459    1.8868   -0.8726 H         1 <0>         0.0817
     22 H3         -0.5289    1.8773    0.9072 H         1 <0>         0.0816
     23 H4          0.5123   -0.3556   -0.8948 H         1 <0>         0.1408
     24 H5          0.7568   -1.6008    1.2356 H         1 <0>         0.0819
     25 H6          1.7647   -0.1336    1.2338 H         1 <0>         0.1070
     26 H7          0.2319   -0.1594    2.1383 H         1 <0>         0.0828
     27 H8         -1.8225   -0.2564    0.8803 H         1 <0>         0.4293
     28 H9         -0.8769   -2.2525   -1.0538 H         1 <0>         0.1472
     29 H10        -0.8062   -2.4075    0.7180 H         1 <0>         0.1478
     30 H11        -3.0784   -2.6005   -2.2930 H         1 <0>         0.2142
     31 H12        -3.9767   -2.9463    3.6828 H         1 <0>         0.1661
     32 H13        -7.1567   -4.1193    1.0563 H         1 <0>         0.1601
     33 H14        -1.8879   -0.1129   -0.7598 H         1 <0>         0.4263
@<TRIPOS>BOND
     1    1    2 1
     2    1   20 1
     3    1   21 1
     4    1   22 1
     5    2    3 1
     6    2    4 1
     7    2   23 1
     8    3   24 1
     9    3   25 1
    10    3   26 1
    11    4    5 1
    12    4   27 1
    13    4   33 1
    14    5    6 1
    15    5   28 1
    16    5   29 1
    17    6   10 1
    18    6    7 2
    19    7    8 1
    20    7   30 1
    21    8    9 1
    22    9   10 2
    23    9   11 1
    24   11   16 ar
    25   11   12 ar
    26   12   13 ar
    27   12   31 1
    28   13   14 ar
    29   13   19 1
    30   14   15 ar
    31   14   18 1
    32   15   16 ar
    33   15   17 1
    34   16   32 1
@<TRIPOS>MOLECULE
ZINC01572760
   38    40     0     0     0
SMALL
USER_CHARGES
4-[[2-(4-chlorophenyl)thiazol-4-yl]methyl]-4-methyl-1-oxa-4-azoniacyclohexane
@<TRIPOS>ATOM
      1 C1         -0.7436    3.0413   -1.1740 C.3       1 <0>        -0.0528
      2 N1         -0.7232    1.5724   -1.1821 N.4       1 <0>        -0.2648
      3 C2         -2.1014    1.0631   -1.1724 C.3       1 <0>        -0.0462
      4 C3         -2.8396    1.5716   -2.4132 C.3       1 <0>         0.0378
      5 O1         -2.1339    1.1551   -3.5855 O.3       1 <0>        -0.3542
      6 C4         -0.7776    1.6072   -3.6297 C.3       1 <0>         0.0358
      7 C5         -0.0356    1.0987   -2.3911 C.3       1 <0>        -0.0409
      8 C6         -0.0127    1.0858    0.0080 C.3       1 <0>         0.0760
      9 C7         -0.7181    1.5718    1.2479 C.2       1 <0>         0.0032
     10 C8         -1.6309    0.7775    1.8675 C.2       1 <0>        -0.1867
     11 S1         -2.1195    1.8336    3.2256 S.3       1 <0>         0.0985
     12 C9         -1.0576    3.2140    2.8208 C.2       1 <0>         0.1796
     13 N2         -0.4482    2.7605    1.7344 N.2       1 <0>        -0.5041
     14 C10        -0.8981    4.5101    3.5142 C.ar      1 <0>        -0.0385
     15 C11         0.0021    5.4590    3.0273 C.ar      1 <0>        -0.0510
     16 C12         0.1434    6.6681    3.6759 C.ar      1 <0>        -0.1112
     17 C13        -0.5982    6.9373    4.8139 C.ar      1 <0>        -0.0056
     18 C14        -1.4894    5.9978    5.3045 C.ar      1 <0>        -0.1059
     19 C15        -1.6428    4.7871    4.6615 C.ar      1 <0>        -0.0708
     20 Cl1        -0.4097    8.4584    5.6291 Cl        1 <0>        -0.0429
     21 H1          0.2789    3.4189   -1.1816 H         1 <0>         0.1279
     22 H2         -1.2708    3.4022   -2.0571 H         1 <0>         0.1185
     23 H3         -1.2540    3.3926   -0.2772 H         1 <0>         0.1246
     24 H4         -2.0863   -0.0268   -1.1795 H         1 <0>         0.1387
     25 H5         -2.6125    1.4140   -0.2759 H         1 <0>         0.1340
     26 H6         -2.8900    2.6601   -2.3861 H         1 <0>         0.0798
     27 H7         -3.8488    1.1602   -2.4304 H         1 <0>         0.1409
     28 H8         -0.7574    2.6969   -3.6442 H         1 <0>         0.0812
     29 H9         -0.2939    1.2221   -4.5274 H         1 <0>         0.1425
     30 H10         0.9870    1.4761   -2.3994 H         1 <0>         0.1419
     31 H11        -0.0212    0.0088   -2.3978 H         1 <0>         0.1389
     32 H12         0.0021   -0.0041    0.0020 H         1 <0>         0.1422
     33 H13         1.0099    1.4631    0.0003 H         1 <0>         0.1438
     34 H14        -1.9676   -0.2161    1.6108 H         1 <0>         0.2100
     35 H15         0.5843    5.2483    2.1424 H         1 <0>         0.1441
     36 H16         0.8372    7.4045    3.2981 H         1 <0>         0.1476
     37 H17        -2.0652    6.2132    6.1924 H         1 <0>         0.1494
     38 H18        -2.3376    4.0548    5.0454 H         1 <0>         0.1384
@<TRIPOS>BOND
     1    1    2 1
     2    1   21 1
     3    1   22 1
     4    1   23 1
     5    2    7 1
     6    2    3 1
     7    2    8 1
     8    3    4 1
     9    3   24 1
    10    3   25 1
    11    4    5 1
    12    4   26 1
    13    4   27 1
    14    5    6 1
    15    6    7 1
    16    6   28 1
    17    6   29 1
    18    7   30 1
    19    7   31 1
    20    8    9 1
    21    8   32 1
    22    8   33 1
    23    9   13 1
    24    9   10 2
    25   10   11 1
    26   10   34 1
    27   11   12 1
    28   12   13 2
    29   12   14 1
    30   14   19 ar
    31   14   15 ar
    32   15   16 ar
    33   15   35 1
    34   16   17 ar
    35   16   36 1
    36   17   18 ar
    37   17   20 1
    38   18   19 ar
    39   18   37 1
    40   19   38 1
@<TRIPOS>MOLECULE
ZINC00158874
   22    23     0     0     0
SMALL
USER_CHARGES
(2-phenylthiazol-4-yl)methanol
@<TRIPOS>ATOM
      1 C1          2.3776    1.4189   -0.0135 C.ar      1 <0>        -0.0991
      2 C2          1.1702    2.0943    0.0021 C.ar      1 <0>        -0.1177
      3 C3         -0.0168    1.3913    0.0097 C.ar      1 <0>        -0.0914
      4 C4          0.0021   -0.0041    0.0020 C.ar      1 <0>        -0.0187
      5 C5          1.2232   -0.6793   -0.0133 C.ar      1 <0>        -0.0707
      6 C6          2.4032    0.0356   -0.0207 C.ar      1 <0>        -0.1205
      7 C7         -1.2664   -0.7639    0.0105 C.2       1 <0>         0.1588
      8 N1         -1.4618   -2.0750    0.0054 N.2       1 <0>        -0.4946
      9 C8         -2.6714   -2.5837    0.0147 C.2       1 <0>         0.0438
     10 C9         -3.7528   -1.7598    0.0299 C.2       1 <0>        -0.1645
     11 S1         -2.9498   -0.1617    0.0384 S.3       1 <0>         0.0085
     12 C10        -2.8616   -4.0786    0.0081 C.3       1 <0>         0.1504
     13 O1         -4.2581   -4.3812    0.0198 O.3       1 <0>        -0.5716
     14 H1          3.3041    1.9738   -0.0197 H         1 <0>         0.1294
     15 H2          1.1570    3.1742    0.0077 H         1 <0>         0.1323
     16 H3         -0.9587    1.9197    0.0170 H         1 <0>         0.1274
     17 H4          1.2446   -1.7590   -0.0189 H         1 <0>         0.1355
     18 H5          3.3490   -0.4857   -0.0325 H         1 <0>         0.1319
     19 H6         -4.8050   -2.0029    0.0387 H         1 <0>         0.2050
     20 H7         -2.4063   -4.4989   -0.8887 H         1 <0>         0.0672
     21 H8         -2.3892   -4.5089    0.8911 H         1 <0>         0.0672
     22 H9         -4.4555   -5.3278    0.0164 H         1 <0>         0.3913
@<TRIPOS>BOND
     1    1    6 ar
     2    1    2 ar
     3    1   14 1
     4    2    3 ar
     5    2   15 1
     6    3    4 ar
     7    3   16 1
     8    4    5 ar
     9    4    7 1
    10    5    6 ar
    11    5   17 1
    12    6   18 1
    13    7   11 1
    14    7    8 2
    15    8    9 1
    16    9   10 2
    17    9   12 1
    18   10   11 1
    19   10   19 1
    20   12   13 1
    21   12   20 1
    22   12   21 1
    23   13   22 1
@<TRIPOS>MOLECULE
ZINC70839968
   31    32     0     0     0
SMALL
USER_CHARGES

@<TRIPOS>ATOM
      1 C1         -0.0187    1.5258    0.0104 C.3       1 <0>        -0.1745
      2 C2          0.0021   -0.0041    0.0020 C.3       1 <0>         0.1091
      3 H1          0.5123   -0.3556   -0.8948 H         1 <0>         0.1573
      4 C3          0.7309   -0.5033    1.2229 C.2       1 <0>         0.0448
      5 C4          0.1265   -1.3831    2.0640 C.2       1 <0>        -0.2677
      6 S1          1.4140   -1.6112    3.2842 S.3       1 <0>         0.0894
      7 C5          2.6140   -0.5124    2.5427 C.2       1 <0>         0.2122
      8 N1          1.9528   -0.0931    1.4727 N.2       1 <0>        -0.5088
      9 C6          3.9779   -0.1685    2.9972 C.ar      1 <0>        -0.0908
     10 C7          4.7548    0.7288    2.2625 C.ar      1 <0>        -0.0163
     11 C8          6.0260    1.0474    2.6898 C.ar      1 <0>        -0.1555
     12 C9          6.5342    0.4765    3.8493 C.ar      1 <0>         0.1714
     13 C10         5.7645   -0.4170    4.5827 C.ar      1 <0>        -0.2091
     14 C11         4.4901   -0.7358    4.1653 C.ar      1 <0>        -0.0361
     15 O1          7.7877    0.7926    4.2670 O.3       1 <0>        -0.3065
     16 C12         8.2478    0.1693    5.4677 C.3       1 <0>         0.0204
     17 N2         -1.3761   -0.5125    0.0124 N.4       1 <0>        -0.6348
     18 H2          1.0039    1.9031    0.0027 H         1 <0>         0.1152
     19 H3         -0.5459    1.8868   -0.8726 H         1 <0>         0.0876
     20 H4         -0.5289    1.8773    0.9072 H         1 <0>         0.0803
     21 H5         -0.8585   -1.8228    2.0105 H         1 <0>         0.1964
     22 H6          4.3606    1.1727    1.3602 H         1 <0>         0.1443
     23 H7          6.6277    1.7415    2.1219 H         1 <0>         0.1464
     24 H8          6.1633   -0.8592    5.4837 H         1 <0>         0.1438
     25 H9          3.8903   -1.4271    4.7388 H         1 <0>         0.1317
     26 H10         7.5878    0.4379    6.2925 H         1 <0>         0.0624
     27 H11         8.2463   -0.9131    5.3388 H         1 <0>         0.0624
     28 H12         9.2604    0.5075    5.6877 H         1 <0>         0.1096
     29 H13        -1.8641   -0.1783   -0.8050 H         1 <0>         0.4435
     30 H14        -1.3624   -1.5214    0.0069 H         1 <0>         0.4367
     31 H15        -1.8484   -0.1871    0.8426 H         1 <0>         0.4350
@<TRIPOS>BOND
     1    1    2 1
     2    1   18 1
     3    1   19 1
     4    1   20 1
     5    2    3 1
     6    2    4 1
     7    2   17 1
     8    4    8 1
     9    4    5 2
    10    5    6 1
    11    5   21 1
    12    6    7 1
    13    7    8 2
    14    7    9 1
    15    9   14 ar
    16    9   10 ar
    17   10   11 ar
    18   10   22 1
    19   11   12 ar
    20   11   23 1
    21   12   13 ar
    22   12   15 1
    23   13   14 ar
    24   13   24 1
    25   14   25 1
    26   15   16 1
    27   16   26 1
    28   16   27 1
    29   16   28 1
    30   17   29 1
    31   17   30 1
    32   17   31 1
@<TRIPOS>MOLECULE
ZINC70304040
   41    42     0     0     0
SMALL
USER_CHARGES

@<TRIPOS>ATOM
      1 C1         -0.0184    1.5028    0.0103 C.3       1 <0>        -0.1240
      2 C2          0.0021   -0.0041    0.0020 C.ar      1 <0>        -0.0563
      3 C3          0.0057   -0.6862   -1.2016 C.ar      1 <0>        -0.1183
      4 C4          0.0249   -2.0657   -1.2161 C.ar      1 <0>        -0.0832
      5 C5          0.0405   -2.7729   -0.0132 C.ar      1 <0>        -0.0354
      6 C6          0.0368   -2.0788    1.1974 C.ar      1 <0>        -0.0635
      7 C7          0.0229   -0.6992    1.1980 C.ar      1 <0>        -0.1235
      8 C8          0.0606   -4.2514   -0.0214 C.2       1 <0>         0.1695
      9 N1          0.0718   -5.0983    0.9984 N.2       1 <0>        -0.5026
     10 C9          0.0895   -6.3962    0.8061 C.2       1 <0>         0.0544
     11 C10         0.0966   -6.8936   -0.4593 C.2       1 <0>        -0.1853
     12 S1          0.0683   -5.3786   -1.4093 S.3       1 <0>         0.0302
     13 C11         0.1024   -7.3339    1.9857 C.3       1 <0>         0.1296
     14 N2          1.4849   -7.5249    2.4443 N.3       1 <0>        -0.5297
     15 C12         2.0375   -6.2757    2.9848 C.3       1 <0>         0.0146
     16 C13         1.5666   -8.6080    3.4333 C.3       1 <0>         0.0245
     17 C14         3.0349   -8.9451    3.7004 C.3       1 <0>        -0.0116
     18 N3          3.1166  -10.0282    4.6894 N.4       1 <0>        -0.5076
     19 C15         4.5264  -10.3519    4.9458 C.3       1 <0>        -0.0455
     20 H1          1.0042    1.8801    0.0026 H         1 <0>         0.0780
     21 H2         -0.5455    1.8639   -0.8728 H         1 <0>         0.0727
     22 H3         -0.5286    1.8543    0.9071 H         1 <0>         0.0720
     23 H4         -0.0068   -0.1377   -2.1319 H         1 <0>         0.1343
     24 H5          0.0273   -2.5970   -2.1564 H         1 <0>         0.1278
     25 H6          0.0485   -2.6203    2.1317 H         1 <0>         0.1328
     26 H7          0.0244   -0.1607    2.1343 H         1 <0>         0.1322
     27 H8          0.1111   -7.9193   -0.7971 H         1 <0>         0.1988
     28 H9         -0.4931   -6.9093    2.7939 H         1 <0>         0.0607
     29 H10        -0.3185   -8.2951    1.6905 H         1 <0>         0.0956
     30 H11         1.4318   -5.9456    3.8287 H         1 <0>         0.0389
     31 H12         3.0617   -6.4453    3.3170 H         1 <0>         0.0643
     32 H13         2.0291   -5.5094    2.2097 H         1 <0>         0.0889
     33 H14         1.0924   -8.2890    4.3615 H         1 <0>         0.0591
     34 H15         1.0553   -9.4905    3.0488 H         1 <0>         0.0984
     35 H16         3.5091   -9.2641    2.7722 H         1 <0>         0.1414
     36 H17         3.5462   -8.0626    4.0850 H         1 <0>         0.1317
     37 H18         2.6777   -9.7329    5.5486 H         1 <0>         0.4297
     38 H19         4.5870  -11.1555    5.6796 H         1 <0>         0.1277
     39 H20         5.0006  -10.6708    4.0176 H         1 <0>         0.1248
     40 H21         5.0377   -9.4694    5.3303 H         1 <0>         0.1232
     41 H22         2.6434  -10.8451    4.3334 H         1 <0>         0.4310
@<TRIPOS>BOND
     1    1    2 1
     2    1   20 1
     3    1   21 1
     4    1   22 1
     5    2    7 ar
     6    2    3 ar
     7    3    4 ar
     8    3   23 1
     9    4    5 ar
    10    4   24 1
    11    5    6 ar
    12    5    8 1
    13    6    7 ar
    14    6   25 1
    15    7   26 1
    16    8   12 1
    17    8    9 2
    18    9   10 1
    19   10   11 2
    20   10   13 1
    21   11   12 1
    22   11   27 1
    23   13   14 1
    24   13   28 1
    25   13   29 1
    26   14   15 1
    27   14   16 1
    28   15   30 1
    29   15   31 1
    30   15   32 1
    31   16   17 1
    32   16   33 1
    33   16   34 1
    34   17   18 1
    35   17   35 1
    36   17   36 1
    37   18   19 1
    38   18   37 1
    39   18   41 1
    40   19   38 1
    41   19   39 1
    42   19   40 1
@<TRIPOS>MOLECULE
ZINC94902816
   45    46     0     0     0
SMALL
USER_CHARGES

@<TRIPOS>ATOM
      1 C1         -0.0187    1.5258    0.0104 C.3       1 <0>        -0.1564
      2 C2          0.0021   -0.0041    0.0020 C.3       1 <0>        -0.1515
      3 C3         -1.4333   -0.5336    0.0129 C.3       1 <0>        -0.0102
      4 N1         -1.4134   -2.0025    0.0048 N.4       1 <0>        -0.5084
      5 C4         -2.7915   -2.5110    0.0152 C.3       1 <0>         0.0782
      6 C5         -2.7711   -4.0178    0.0069 C.2       1 <0>        -0.0078
      7 C6         -2.8583   -4.7064    1.1760 C.2       1 <0>        -0.1860
      8 S1         -2.7866   -6.3890    0.5739 S.3       1 <0>         0.0887
      9 C7         -2.6487   -5.9924   -1.1641 C.2       1 <0>         0.1906
     10 N2         -2.6745   -4.6675   -1.1290 N.2       1 <0>        -0.5118
     11 C8         -2.5406   -6.8985   -2.3277 C.ar      1 <0>        -0.0509
     12 C9         -2.4351   -6.3742   -3.6167 C.ar      1 <0>        -0.0579
     13 C10        -2.3346   -7.2250   -4.6981 C.ar      1 <0>        -0.1205
     14 C11        -2.3386   -8.5952   -4.5068 C.ar      1 <0>        -0.0369
     15 C12        -2.4434   -9.1214   -3.2315 C.ar      1 <0>        -0.1132
     16 C13        -2.5378   -8.2814   -2.1411 C.ar      1 <0>        -0.0797
     17 C14        -2.2289   -9.5186   -5.6927 C.3       1 <0>        -0.0887
     18 C15        -0.7546   -9.8182   -5.9712 C.3       1 <0>        -0.0894
     19 C16        -0.1616  -10.5971   -4.7955 C.3       1 <0>        -0.1543
     20 C17        -0.6362  -10.6531   -7.2478 C.3       1 <0>        -0.1511
     21 H1          1.0039    1.9031    0.0027 H         1 <0>         0.0776
     22 H2         -0.5459    1.8868   -0.8726 H         1 <0>         0.0676
     23 H3         -0.5289    1.8773    0.9072 H         1 <0>         0.0674
     24 H4          0.5123   -0.3556   -0.8948 H         1 <0>         0.0862
     25 H5          0.5293   -0.3651    0.8851 H         1 <0>         0.0861
     26 H6         -1.9435   -0.1821    0.9097 H         1 <0>         0.1330
     27 H7         -1.9605   -0.1726   -0.8702 H         1 <0>         0.1330
     28 H8         -0.9411   -2.3279   -0.8254 H         1 <0>         0.4311
     29 H9         -3.3017   -2.1594    0.9120 H         1 <0>         0.1454
     30 H10        -3.3187   -2.1499   -0.8678 H         1 <0>         0.1447
     31 H11        -2.9462   -4.3392    2.1878 H         1 <0>         0.2095
     32 H12        -2.4325   -5.3047   -3.7673 H         1 <0>         0.1339
     33 H13        -2.2529   -6.8205   -5.6961 H         1 <0>         0.1350
     34 H14        -2.4463  -10.1919   -3.0889 H         1 <0>         0.1369
     35 H15        -2.6143   -8.6933   -1.1457 H         1 <0>         0.1281
     36 H16        -2.7546  -10.4491   -5.4785 H         1 <0>         0.0807
     37 H17        -2.6743   -9.0425   -6.5663 H         1 <0>         0.0802
     38 H18        -0.2112   -8.8818   -6.0977 H         1 <0>         0.0712
     39 H19        -0.7050  -11.5335   -4.6689 H         1 <0>         0.0574
     40 H20         0.8888  -10.8106   -4.9938 H         1 <0>         0.0572
     41 H21        -0.2460  -10.0023   -3.8860 H         1 <0>         0.0556
     42 H22        -1.0587  -10.0981   -8.0854 H         1 <0>         0.0569
     43 H23         0.4142  -10.8665   -7.4462 H         1 <0>         0.0589
     44 H24        -1.1796  -11.5894   -7.1213 H         1 <0>         0.0578
     45 H25        -0.9254   -2.3367    0.8222 H         1 <0>         0.4260
@<TRIPOS>BOND
     1    1    2 1
     2    1   21 1
     3    1   22 1
     4    1   23 1
     5    2    3 1
     6    2   24 1
     7    2   25 1
     8    3    4 1
     9    3   26 1
    10    3   27 1
    11    4    5 1
    12    4   28 1
    13    4   45 1
    14    5    6 1
    15    5   29 1
    16    5   30 1
    17    6   10 1
    18    6    7 2
    19    7    8 1
    20    7   31 1
    21    8    9 1
    22    9   10 2
    23    9   11 1
    24   11   16 ar
    25   11   12 ar
    26   12   13 ar
    27   12   32 1
    28   13   14 ar
    29   13   33 1
    30   14   15 ar
    31   14   17 1
    32   15   16 ar
    33   15   34 1
    34   16   35 1
    35   17   18 1
    36   17   36 1
    37   17   37 1
    38   18   19 1
    39   18   20 1
    40   18   38 1
    41   19   39 1
    42   19   40 1
    43   19   41 1
    44   20   42 1
    45   20   43 1
    46   20   44 1
@<TRIPOS>MOLECULE
ZINC41410483
   25    26     0     0     0
SMALL
USER_CHARGES

@<TRIPOS>ATOM
      1 C1         -0.0173    1.4248    0.0099 C.3       1 <0>         0.0217
      2 O1          0.0021   -0.0041    0.0020 O.3       1 <0>        -0.2992
      3 C2          0.6057   -0.6070   -1.0555 C.ar      1 <0>         0.1615
      4 C3          1.1724    0.1642   -2.0615 C.ar      1 <0>        -0.1962
      5 C4          1.7861   -0.4435   -3.1358 C.ar      1 <0>        -0.0427
      6 C5          1.8377   -1.8365   -3.2122 C.ar      1 <0>        -0.0475
      7 C6          1.2671   -2.6092   -2.1994 C.ar      1 <0>        -0.0206
      8 C7          0.6593   -1.9938   -1.1247 C.ar      1 <0>        -0.0730
      9 Cl1        -0.0447   -2.9530    0.1394 Cl        1 <0>        -0.0422
     10 C8          2.4946   -2.4916   -4.3630 C.2       1 <0>         0.1661
     11 N1          2.6438   -3.7830   -4.6236 N.2       1 <0>        -0.4878
     12 C9          3.2620   -4.1924   -5.7069 C.2       1 <0>         0.0425
     13 C10         3.7627   -3.2842   -6.5852 C.2       1 <0>        -0.1805
     14 S1          3.2950   -1.7559   -5.7826 S.3       1 <0>         0.0307
     15 C11         3.4168   -5.6671   -5.9759 C.3       1 <0>         0.0355
     16 Cl2         2.0022   -6.2563   -6.9260 Cl        1 <0>        -0.1654
     17 H1          1.0053    1.8021    0.0021 H         1 <0>         0.0614
     18 H2         -0.5445    1.7859   -0.8732 H         1 <0>         0.0615
     19 H3         -0.5275    1.7763    0.9067 H         1 <0>         0.1075
     20 H4          1.1321    1.2418   -2.0023 H         1 <0>         0.1482
     21 H5          2.2263    0.1574   -3.9178 H         1 <0>         0.1376
     22 H6          1.3050   -3.6871   -2.2550 H         1 <0>         0.1544
     23 H7          4.2925   -3.4417   -7.5131 H         1 <0>         0.2041
     24 H8          4.3320   -5.8390   -6.5424 H         1 <0>         0.1117
     25 H9          3.4686   -6.2055   -5.0297 H         1 <0>         0.1107
@<TRIPOS>BOND
     1    1    2 1
     2    1   17 1
     3    1   18 1
     4    1   19 1
     5    2    3 1
     6    3    8 ar
     7    3    4 ar
     8    4    5 ar
     9    4   20 1
    10    5    6 ar
    11    5   21 1
    12    6    7 ar
    13    6   10 1
    14    7    8 ar
    15    7   22 1
    16    8    9 1
    17   10   14 1
    18   10   11 2
    19   11   12 1
    20   12   13 2
    21   12   15 1
    22   13   14 1
    23   13   23 1
    24   15   16 1
    25   15   24 1
    26   15   25 1
@<TRIPOS>MOLECULE
ZINC41009947
   37    39     0     0     0
SMALL
USER_CHARGES

@<TRIPOS>ATOM
      1 C1         -0.0178    1.4648    0.0101 C.3       1 <0>        -0.0467
      2 N1          0.0021   -0.0041    0.0020 N.4       1 <0>        -0.5084
      3 C2          0.6897   -0.4778   -1.2066 C.3       1 <0>         0.0768
      4 C3          0.7101   -1.9847   -1.2149 C.2       1 <0>        -0.0080
      5 C4         -0.2480   -2.6749   -1.8887 C.2       1 <0>        -0.1862
      6 S1          0.2641   -4.3566   -1.5599 S.3       1 <0>         0.0843
      7 C5          1.6944   -3.9580   -0.5638 C.2       1 <0>         0.1922
      8 N2          1.6559   -2.6327   -0.5762 N.2       1 <0>        -0.5116
      9 C6          2.6621   -4.8622    0.0923 C.ar      1 <0>        -0.0534
     10 C7          3.7225   -4.3233    0.8424 C.ar      1 <0>        -0.0675
     11 C8          4.6239   -5.1329    1.4543 C.ar      1 <0>        -0.1068
     12 C9          4.5041   -6.5307    1.3430 C.ar      1 <0>         0.0117
     13 C10         5.4244   -7.3873    1.9678 C.ar      1 <0>        -0.1638
     14 C11         5.2824   -8.7403    1.8423 C.ar      1 <0>         0.1536
     15 C12         4.2311   -9.2859    1.0988 C.ar      1 <0>        -0.1854
     16 C13         3.3229   -8.4842    0.4814 C.ar      1 <0>        -0.0558
     17 C14         3.4386   -7.0861    0.5895 C.ar      1 <0>        -0.0911
     18 C15         2.5141   -6.2333   -0.0317 C.ar      1 <0>        -0.0381
     19 O1          6.1748   -9.5669    2.4477 O.3       1 <0>        -0.3115
     20 C16         5.9746  -10.9719    2.2806 C.3       1 <0>         0.0221
     21 H1          1.0047    1.8421    0.0024 H         1 <0>         0.1252
     22 H2         -0.5450    1.8259   -0.8730 H         1 <0>         0.1249
     23 H3         -0.5280    1.8163    0.9069 H         1 <0>         0.1275
     24 H4          0.4901   -0.3383    0.8195 H         1 <0>         0.4333
     25 H5          0.1625   -0.1167   -2.0897 H         1 <0>         0.1453
     26 H6          1.7123   -0.1005   -1.2143 H         1 <0>         0.1449
     27 H7         -1.0862   -2.3090   -2.4630 H         1 <0>         0.2093
     28 H8          3.8212   -3.2516    0.9325 H         1 <0>         0.1346
     29 H9          5.4335   -4.7042    2.0264 H         1 <0>         0.1402
     30 H10         6.2410   -6.9787    2.5445 H         1 <0>         0.1424
     31 H11         4.1395  -10.3587    1.0135 H         1 <0>         0.1390
     32 H12         2.5160   -8.9188   -0.0900 H         1 <0>         0.1384
     33 H13         1.6956   -6.6428   -0.6050 H         1 <0>         0.1331
     34 H14         4.9996  -11.2501    2.6808 H         1 <0>         0.0599
     35 H15         6.0168  -11.2214    1.2204 H         1 <0>         0.0601
     36 H16         6.7546  -11.5160    2.8132 H         1 <0>         0.1072
     37 H17        -0.9445   -0.3533    0.0092 H         1 <0>         0.4283
@<TRIPOS>BOND
     1    1    2 1
     2    1   21 1
     3    1   22 1
     4    1   23 1
     5    2    3 1
     6    2   24 1
     7    2   37 1
     8    3    4 1
     9    3   25 1
    10    3   26 1
    11    4    8 1
    12    4    5 2
    13    5    6 1
    14    5   27 1
    15    6    7 1
    16    7    8 2
    17    7    9 1
    18    9   18 ar
    19    9   10 ar
    20   10   11 ar
    21   10   28 1
    22   11   12 ar
    23   11   29 1
    24   12   17 ar
    25   12   13 ar
    26   13   14 ar
    27   13   30 1
    28   14   15 ar
    29   14   19 1
    30   15   16 ar
    31   15   31 1
    32   16   17 ar
    33   16   32 1
    34   17   18 ar
    35   18   33 1
    36   19   20 1
    37   20   34 1
    38   20   35 1
    39   20   36 1
@<TRIPOS>MOLECULE
ZINC93874418
   47    48     0     0     0
SMALL
USER_CHARGES

@<TRIPOS>ATOM
      1 C1          0.6528    1.2018   -1.1091 C.3       1 <0>        -0.1246
      2 C2          0.4597   -0.2679   -0.8374 C.ar      1 <0>        -0.0541
      3 C3          0.1026   -1.1179   -1.8690 C.ar      1 <0>        -0.1195
      4 C4         -0.0753   -2.4645   -1.6270 C.ar      1 <0>        -0.0826
      5 C5          0.1057   -2.9686   -0.3384 C.ar      1 <0>        -0.0397
      6 C6          0.4659   -2.1059    0.6976 C.ar      1 <0>        -0.0607
      7 C7          0.6459   -0.7622    0.4413 C.ar      1 <0>        -0.1231
      8 C8         -0.0838   -4.4106   -0.0718 C.2       1 <0>         0.1805
      9 N1          0.0331   -5.0780    1.0676 N.2       1 <0>        -0.5020
     10 C9         -0.1740   -6.3726    1.1232 C.2       1 <0>         0.0758
     11 C10        -0.5156   -7.0532   -0.0031 C.2       1 <0>        -0.2125
     12 S1         -0.5399   -5.7225   -1.1979 S.3       1 <0>         0.0195
     13 C11        -0.0330   -7.1039    2.4334 C.3       1 <0>         0.1043
     14 N2          1.3758   -7.4624    2.6449 N.3       1 <0>        -0.5406
     15 C12         2.1594   -6.2926    3.0638 C.3       1 <0>         0.0198
     16 C13         1.5004   -8.5555    3.6183 C.3       1 <0>         0.0566
     17 C14         1.3733   -9.8984    2.8961 C.3       1 <0>        -0.0767
     18 C15         1.6428  -11.0358    3.8832 C.3       1 <0>        -0.1665
     19 C16        -0.0403  -10.0402    2.3281 C.3       1 <0>        -0.1772
     20 C17         2.3903   -9.9619    1.7547 C.3       1 <0>         0.0039
     21 N3          2.2683  -11.2512    1.0614 N.4       1 <0>        -0.6409
     22 H1          1.6911    1.3870   -1.3844 H         1 <0>         0.0785
     23 H2         -0.0000    1.5091   -1.9261 H         1 <0>         0.0728
     24 H3          0.4071    1.7722   -0.2134 H         1 <0>         0.0726
     25 H4         -0.0376   -0.7264   -2.8657 H         1 <0>         0.1342
     26 H5         -0.3545   -3.1269   -2.4330 H         1 <0>         0.1269
     27 H6          0.6072   -2.4898    1.6972 H         1 <0>         0.1344
     28 H7          0.9290   -0.0942    1.2413 H         1 <0>         0.1333
     29 H8         -0.7196   -8.1051   -0.1382 H         1 <0>         0.1909
     30 H9         -0.3705   -6.4611    3.2464 H         1 <0>         0.0604
     31 H10        -0.6390   -8.0097    2.4109 H         1 <0>         0.1008
     32 H11         1.8025   -5.9443    4.0331 H         1 <0>         0.0348
     33 H12         3.2110   -6.5687    3.1417 H         1 <0>         0.0679
     34 H13         2.0462   -5.4968    2.3276 H         1 <0>         0.0842
     35 H14         2.4724   -8.4969    4.1080 H         1 <0>         0.0869
     36 H15         0.7114   -8.4686    4.3653 H         1 <0>         0.0646
     37 H16         0.9183  -10.9906    4.6963 H         1 <0>         0.0844
     38 H17         1.5523  -11.9925    3.3687 H         1 <0>         0.0559
     39 H18         2.6499  -10.9348    4.2878 H         1 <0>         0.0750
     40 H19        -0.1646   -9.3569    1.4881 H         1 <0>         0.0799
     41 H20        -0.1945  -11.0646    1.9890 H         1 <0>         0.0584
     42 H21        -0.7688   -9.8003    3.1026 H         1 <0>         0.0842
     43 H22         2.1983   -9.1515    1.0515 H         1 <0>         0.1479
     44 H23         3.3973   -9.8608    2.1594 H         1 <0>         0.1322
     45 H24         2.9389  -11.2931    0.3087 H         1 <0>         0.4373
     46 H25         2.4460  -12.0013    1.7123 H         1 <0>         0.4304
     47 H26         1.3360  -11.3447    0.6868 H         1 <0>         0.4315
@<TRIPOS>BOND
     1    1    2 1
     2    1   22 1
     3    1   23 1
     4    1   24 1
     5    2    7 ar
     6    2    3 ar
     7    3    4 ar
     8    3   25 1
     9    4    5 ar
    10    4   26 1
    11    5    6 ar
    12    5    8 1
    13    6    7 ar
    14    6   27 1
    15    7   28 1
    16    8   12 1
    17    8    9 2
    18    9   10 1
    19   10   11 2
    20   10   13 1
    21   11   12 1
    22   11   29 1
    23   13   14 1
    24   13   30 1
    25   13   31 1
    26   14   15 1
    27   14   16 1
    28   15   32 1
    29   15   33 1
    30   15   34 1
    31   16   17 1
    32   16   35 1
    33   16   36 1
    34   17   18 1
    35   17   19 1
    36   17   20 1
    37   18   37 1
    38   18   38 1
    39   18   39 1
    40   19   40 1
    41   19   41 1
    42   19   42 1
    43   20   21 1
    44   20   43 1
    45   20   44 1
    46   21   45 1
    47   21   46 1
    48   21   47 1
@<TRIPOS>MOLECULE
ZINC93874418
   48    49     0     0     0
SMALL
USER_CHARGES

@<TRIPOS>ATOM
      1 C1         -1.2561    0.4193   -2.0398 C.3       1 <0>        -0.1309
      2 C2         -0.9564   -1.0185   -1.7021 C.ar      1 <0>        -0.0374
      3 C3         -0.2999   -1.8190   -2.6198 C.ar      1 <0>        -0.1171
      4 C4         -0.0221   -3.1360   -2.3167 C.ar      1 <0>        -0.0748
      5 C5         -0.4048   -3.6601   -1.0813 C.ar      1 <0>        -0.0602
      6 C6         -1.0667   -2.8473   -0.1601 C.ar      1 <0>        -0.0566
      7 C7         -1.3339   -1.5305   -0.4735 C.ar      1 <0>        -0.1246
      8 C8         -0.1107   -5.0709   -0.7500 C.2       1 <0>         0.1978
      9 N1         -0.3913   -5.7525    0.3518 N.2       1 <0>        -0.5194
     10 C9         -0.0520   -7.0138    0.4778 C.2       1 <0>        -0.0073
     11 C10         0.6005   -7.6442   -0.5348 C.2       1 <0>        -0.1926
     12 S1          0.7123   -6.3191   -1.7306 S.3       1 <0>         0.1065
     13 C11        -0.3844   -7.7621    1.7430 C.3       1 <0>         0.0753
     14 N2          0.6661   -7.5255    2.7422 N.4       1 <0>        -0.3828
     15 C12         0.6715   -6.1061    3.1203 C.3       1 <0>        -0.0781
     16 C13         0.4052   -8.3480    3.9311 C.3       1 <0>        -0.0002
     17 C14         1.6332   -8.3297    4.8434 C.3       1 <0>        -0.1107
     18 C15         2.8733   -8.7212    4.0373 C.3       1 <0>        -0.1928
     19 C16         1.8211   -6.9240    5.4177 C.3       1 <0>        -0.1920
     20 C17         1.4334   -9.3256    5.9876 C.3       1 <0>         0.0047
     21 N3          2.6125   -9.3080    6.8636 N.4       1 <0>        -0.6397
     22 H1         -0.4228    1.0477   -1.7255 H         1 <0>         0.0834
     23 H2         -1.3996    0.5175   -3.1158 H         1 <0>         0.0775
     24 H3         -2.1628    0.7327   -1.5222 H         1 <0>         0.0763
     25 H4         -0.0045   -1.4123   -3.5757 H         1 <0>         0.1400
     26 H5          0.4902   -3.7600   -3.0340 H         1 <0>         0.1293
     27 H6         -1.3659   -3.2471    0.7975 H         1 <0>         0.1326
     28 H7         -1.8421   -0.8992    0.2403 H         1 <0>         0.1371
     29 H8          0.9506   -8.6638   -0.6004 H         1 <0>         0.2083
     30 H9         -1.3408   -7.4121    2.1314 H         1 <0>         0.1473
     31 H10        -0.4479   -8.8288    1.5281 H         1 <0>         0.1457
     32 H11         0.0139   -5.9556    3.9765 H         1 <0>         0.1275
     33 H12         1.6853   -5.8040    3.3833 H         1 <0>         0.1234
     34 H13         0.3194   -5.5053    2.2817 H         1 <0>         0.1484
     35 H14        -0.4534   -7.9464    4.4694 H         1 <0>         0.1463
     36 H15         0.1952   -9.3728    3.6250 H         1 <0>         0.1435
     37 H16         3.0157   -8.0117    3.2221 H         1 <0>         0.0806
     38 H17         3.7482   -8.7082    4.6873 H         1 <0>         0.0866
     39 H18         2.7395   -9.7226    3.6282 H         1 <0>         0.0959
     40 H19         0.8459   -6.4688    5.5903 H         1 <0>         0.0950
     41 H20         2.3649   -6.9863    6.3603 H         1 <0>         0.0714
     42 H21         2.3863   -6.3157    4.7116 H         1 <0>         0.0948
     43 H22         0.5500   -9.0466    6.5619 H         1 <0>         0.1491
     44 H23         1.2996  -10.3270    5.5785 H         1 <0>         0.1489
     45 H24         2.4808   -9.9647    7.6182 H         1 <0>         0.4504
     46 H25         3.4303   -9.5662    6.3320 H         1 <0>         0.4367
     47 H26         2.7364   -8.3810    7.2423 H         1 <0>         0.4360
     48 H27         1.5631   -7.7732    2.3522 H         1 <0>         0.4208
@<TRIPOS>BOND
     1    1    2 1
     2    1   22 1
     3    1   23 1
     4    1   24 1
     5    2    7 ar
     6    2    3 ar
     7    3    4 ar
     8    3   25 1
     9    4    5 ar
    10    4   26 1
    11    5    6 ar
    12    5    8 1
    13    6    7 ar
    14    6   27 1
    15    7   28 1
    16    8   12 1
    17    8    9 2
    18    9   10 1
    19   10   11 2
    20   10   13 1
    21   11   12 1
    22   11   29 1
    23   13   14 1
    24   13   30 1
    25   13   31 1
    26   14   15 1
    27   14   16 1
    28   14   48 1
    29   15   32 1
    30   15   33 1
    31   15   34 1
    32   16   17 1
    33   16   35 1
    34   16   36 1
    35   17   18 1
    36   17   19 1
    37   17   20 1
    38   18   37 1
    39   18   38 1
    40   18   39 1
    41   19   40 1
    42   19   41 1
    43   19   42 1
    44   20   21 1
    45   20   43 1
    46   20   44 1
    47   21   45 1
    48   21   46 1
    49   21   47 1
@<TRIPOS>MOLECULE
ZINC52201444
   33    34     0     0     0
SMALL
USER_CHARGES

@<TRIPOS>ATOM
      1 C1         -0.0244    1.4086   -0.1050 C.3       1 <0>        -0.1476
      2 C2         -0.0351   -0.1190   -0.0195 C.3       1 <0>        -0.0979
      3 C3          0.7131   -0.5584    1.2126 C.ar      1 <0>        -0.0310
      4 C4          2.0296   -0.9603    1.1155 C.ar      1 <0>        -0.1190
      5 C5          2.7179   -1.3636    2.2456 C.ar      1 <0>        -0.0809
      6 C6          2.0920   -1.3672    3.4797 C.ar      1 <0>        -0.1195
      7 C7          0.7763   -0.9677    3.5904 C.ar      1 <0>        -0.0786
      8 C8          0.0780   -0.5543    2.4549 C.ar      1 <0>        -0.0443
      9 C9         -1.3309   -0.1195    2.5671 C.2       1 <0>         0.1938
     10 N1         -2.3785   -0.4631    1.8311 N.2       1 <0>        -0.5005
     11 C10        -3.5718    0.0257    2.0742 C.2       1 <0>        -0.0142
     12 C11        -3.7491    0.9024    3.0982 C.2       1 <0>        -0.1823
     13 S1         -2.0817    1.0052    3.7368 S.3       1 <0>         0.0894
     14 C12        -4.7436   -0.3835    1.2195 C.3       1 <0>         0.0765
     15 N2         -4.7950    0.4639    0.0207 N.4       1 <0>        -0.5089
     16 C13        -5.9372    0.0650   -0.8124 C.3       1 <0>        -0.0470
     17 H1          1.0052    1.7622   -0.1597 H         1 <0>         0.0642
     18 H2         -0.5655    1.7264   -0.9962 H         1 <0>         0.0589
     19 H3         -0.5051    1.8254    0.7800 H         1 <0>         0.0464
     20 H4         -1.0647   -0.4726    0.0352 H         1 <0>         0.0856
     21 H5          0.4457   -0.5358   -0.9045 H         1 <0>         0.0798
     22 H6          2.5235   -0.9605    0.1551 H         1 <0>         0.1352
     23 H7          3.7481   -1.6772    2.1643 H         1 <0>         0.1356
     24 H8          2.6347   -1.6838    4.3582 H         1 <0>         0.1374
     25 H9          0.2890   -0.9710    4.5541 H         1 <0>         0.1300
     26 H10        -4.6485    1.3961    3.4355 H         1 <0>         0.2092
     27 H11        -4.6303   -1.4262    0.9228 H         1 <0>         0.1450
     28 H12        -5.6664   -0.2656    1.7876 H         1 <0>         0.1456
     29 H13        -4.8999    1.4292    0.2954 H         1 <0>         0.4283
     30 H14        -5.9753    0.6938   -1.7019 H         1 <0>         0.1277
     31 H15        -5.8239   -0.9777   -1.1091 H         1 <0>         0.1254
     32 H16        -6.8600    0.1829   -0.2443 H         1 <0>         0.1253
     33 H17        -3.9408    0.3548   -0.5051 H         1 <0>         0.4323
@<TRIPOS>BOND
     1    1    2 1
     2    1   17 1
     3    1   18 1
     4    1   19 1
     5    2    3 1
     6    2   20 1
     7    2   21 1
     8    3    8 ar
     9    3    4 ar
    10    4    5 ar
    11    4   22 1
    12    5    6 ar
    13    5   23 1
    14    6    7 ar
    15    6   24 1
    16    7    8 ar
    17    7   25 1
    18    8    9 1
    19    9   13 1
    20    9   10 2
    21   10   11 1
    22   11   12 2
    23   11   14 1
    24   12   13 1
    25   12   26 1
    26   14   15 1
    27   14   27 1
    28   14   28 1
    29   15   16 1
    30   15   29 1
    31   15   33 1
    32   16   30 1
    33   16   31 1
    34   16   32 1
@<TRIPOS>MOLECULE
ZINC70842761
   33    34     0     0     0
SMALL
USER_CHARGES

@<TRIPOS>ATOM
      1 C1         -0.0151    1.5024    0.0456 C.3       1 <0>        -0.1216
      2 C2          0.0042   -0.0042    0.0189 C.ar      1 <0>        -0.0848
      3 C3         -0.1309   -0.6752   -1.1837 C.ar      1 <0>        -0.0812
      4 C4         -0.1142   -2.0580   -1.2168 C.ar      1 <0>        -0.1173
      5 C5          0.0374   -2.7773   -0.0490 C.ar      1 <0>        -0.0833
      6 C6          0.1745   -2.1068    1.1669 C.ar      1 <0>        -0.0467
      7 C7          0.1621   -0.7114    1.1927 C.ar      1 <0>        -0.0320
      8 C8          0.3154    0.0210    2.5008 C.3       1 <0>        -0.1149
      9 C9          0.3368   -2.8713    2.4222 C.2       1 <0>         0.2050
     10 N1         -0.2755   -2.7151    3.5875 N.2       1 <0>        -0.4919
     11 C10        -0.0058   -3.4938    4.6086 C.2       1 <0>         0.0359
     12 C11         0.9176   -4.4835    4.4807 C.2       1 <0>        -0.2612
     13 S1          1.4059   -4.2604    2.7747 S.3       1 <0>         0.0989
     14 C12        -0.7182   -3.2913    5.9211 C.3       1 <0>         0.1094
     15 H1         -1.7805   -3.4997    5.7939 H         1 <0>         0.1573
     16 C13        -0.5340   -1.8444    6.3833 C.3       1 <0>        -0.1751
     17 N2         -0.1576   -4.2021    6.9282 N.4       1 <0>        -0.6349
     18 H2          0.9999    1.8809   -0.0760 H         1 <0>         0.0774
     19 H3         -0.6405    1.8722   -0.7669 H         1 <0>         0.0744
     20 H4         -0.4184    1.8438    0.9989 H         1 <0>         0.0722
     21 H5         -0.2501   -0.1168   -2.1005 H         1 <0>         0.1353
     22 H6         -0.2205   -2.5758   -2.1587 H         1 <0>         0.1376
     23 H7          0.0495   -3.8569   -0.0761 H         1 <0>         0.1292
     24 H8         -0.6690    0.2088    2.9296 H         1 <0>         0.0806
     25 H9          0.9023   -0.5857    3.1903 H         1 <0>         0.0605
     26 H10         0.8236    0.9698    2.3286 H         1 <0>         0.0753
     27 H11         1.2585   -5.2067    5.2067 H         1 <0>         0.1970
     28 H12         0.5283   -1.6360    6.5105 H         1 <0>         0.0805
     29 H13        -0.9499   -1.1686    5.6361 H         1 <0>         0.1152
     30 H14        -1.0492   -1.6979    7.3326 H         1 <0>         0.0879
     31 H15         0.8257   -4.0092    7.0459 H         1 <0>         0.4348
     32 H16        -0.6346   -4.0665    7.8069 H         1 <0>         0.4437
     33 H17        -0.2791   -5.1563    6.6234 H         1 <0>         0.4367
@<TRIPOS>BOND
     1    1    2 1
     2    1   18 1
     3    1   19 1
     4    1   20 1
     5    2    7 ar
     6    2    3 ar
     7    3    4 ar
     8    3   21 1
     9    4    5 ar
    10    4   22 1
    11    5    6 ar
    12    5   23 1
    13    6    7 ar
    14    6    9 1
    15    7    8 1
    16    8   24 1
    17    8   25 1
    18    8   26 1
    19    9   13 1
    20    9   10 2
    21   10   11 1
    22   11   12 2
    23   11   14 1
    24   12   13 1
    25   12   27 1
    26   14   15 1
    27   14   16 1
    28   14   17 1
    29   16   28 1
    30   16   29 1
    31   16   30 1
    32   17   31 1
    33   17   32 1
    34   17   33 1
@<TRIPOS>MOLECULE
ZINC70842755
   33    34     0     0     0
SMALL
USER_CHARGES

@<TRIPOS>ATOM
      1 C1         -0.0151    1.5024    0.0456 C.3       1 <0>        -0.1219
      2 C2          0.0042   -0.0042    0.0189 C.ar      1 <0>        -0.0843
      3 C3         -0.1309   -0.6752   -1.1837 C.ar      1 <0>        -0.0829
      4 C4         -0.1142   -2.0580   -1.2168 C.ar      1 <0>        -0.1169
      5 C5          0.0374   -2.7773   -0.0490 C.ar      1 <0>        -0.0853
      6 C6          0.1745   -2.1068    1.1669 C.ar      1 <0>        -0.0434
      7 C7          0.1621   -0.7114    1.1927 C.ar      1 <0>        -0.0346
      8 C8          0.3154    0.0210    2.5008 C.3       1 <0>        -0.1143
      9 C9          0.3368   -2.8713    2.4222 C.2       1 <0>         0.1912
     10 N1         -0.2755   -2.7151    3.5875 N.2       1 <0>        -0.5058
     11 C10        -0.0058   -3.4939    4.6086 C.2       1 <0>        -0.0126
     12 C11         0.9176   -4.4835    4.4807 C.2       1 <0>        -0.1762
     13 S1          1.4060   -4.2604    2.7747 S.3       1 <0>         0.0915
     14 C12        -0.7181   -3.2913    5.9211 C.3       1 <0>         0.1174
     15 H1         -0.3022   -3.9671    6.6684 H         1 <0>         0.1525
     16 C13        -0.5340   -1.8444    6.3833 C.3       1 <0>        -0.1775
     17 N2         -2.1498   -3.5721    5.7497 N.4       1 <0>        -0.6341
     18 H2          0.9998    1.8809   -0.0760 H         1 <0>         0.0777
     19 H3         -0.6405    1.8722   -0.7669 H         1 <0>         0.0742
     20 H4         -0.4185    1.8438    0.9989 H         1 <0>         0.0716
     21 H5         -0.2501   -0.1168   -2.1005 H         1 <0>         0.1348
     22 H6         -0.2205   -2.5758   -2.1587 H         1 <0>         0.1370
     23 H7          0.0495   -3.8569   -0.0761 H         1 <0>         0.1288
     24 H8         -0.6690    0.2088    2.9296 H         1 <0>         0.0774
     25 H9          0.9023   -0.5857    3.1903 H         1 <0>         0.0621
     26 H10         0.8236    0.9698    2.3286 H         1 <0>         0.0749
     27 H11         1.2585   -5.2067    5.2067 H         1 <0>         0.2093
     28 H12        -0.9499   -1.1686    5.6361 H         1 <0>         0.0901
     29 H13        -1.0492   -1.6979    7.3326 H         1 <0>         0.0860
     30 H14         0.5283   -1.6360    6.5105 H         1 <0>         0.1035
     31 H15        -2.2712   -4.5263    5.4449 H         1 <0>         0.4345
     32 H16        -2.6267   -3.4365    6.6285 H         1 <0>         0.4370
     33 H17        -2.5348   -2.9465    5.0580 H         1 <0>         0.4383
@<TRIPOS>BOND
     1    1    2 1
     2    1   18 1
     3    1   19 1
     4    1   20 1
     5    2    7 ar
     6    2    3 ar
     7    3    4 ar
     8    3   21 1
     9    4    5 ar
    10    4   22 1
    11    5    6 ar
    12    5   23 1
    13    6    7 ar
    14    6    9 1
    15    7    8 1
    16    8   24 1
    17    8   25 1
    18    8   26 1
    19    9   13 1
    20    9   10 2
    21   10   11 1
    22   11   12 2
    23   11   14 1
    24   12   13 1
    25   12   27 1
    26   14   15 1
    27   14   16 1
    28   14   17 1
    29   16   28 1
    30   16   29 1
    31   16   30 1
    32   17   31 1
    33   17   32 1
    34   17   33 1
@<TRIPOS>MOLECULE
ZINC76784819
   36    37     0     0     0
SMALL
USER_CHARGES

@<TRIPOS>ATOM
      1 C1         -0.0187    1.5258    0.0104 C.3       1 <0>        -0.1494
      2 C2          0.0021   -0.0041    0.0020 C.3       1 <0>        -0.0961
      3 C3          0.7309   -0.5033    1.2229 C.ar      1 <0>        -0.0409
      4 C4          2.0982   -0.7086    1.1728 C.ar      1 <0>        -0.1137
      5 C5          2.7715   -1.1651    2.2872 C.ar      1 <0>        -0.0780
      6 C6          2.0704   -1.4197    3.4666 C.ar      1 <0>        -0.0492
      7 C7          0.6914   -1.2106    3.5105 C.ar      1 <0>        -0.0607
      8 C8          0.0308   -0.7488    2.3906 C.ar      1 <0>        -0.1206
      9 C9          2.7856   -1.9096    4.6645 C.2       1 <0>         0.1904
     10 N1          2.3088   -2.2125    5.8638 N.2       1 <0>        -0.5385
     11 C10         3.0969   -2.6384    6.8227 C.2       1 <0>         0.0031
     12 C11         4.4299   -2.7757    6.5933 C.2       1 <0>        -0.1812
     13 S1          4.5252   -2.2603    4.8833 S.3       1 <0>         0.0953
     14 C12         2.5254   -2.9745    8.1760 C.3       1 <0>         0.1156
     15 H1          3.0691   -3.8183    8.6007 H         1 <0>         0.1503
     16 C13         2.6597   -1.7634    9.1013 C.3       1 <0>        -0.1798
     17 N2          1.1065   -3.3276    8.0344 N.4       1 <0>        -0.5005
     18 C14         0.5801   -3.7701    9.3325 C.3       1 <0>        -0.0521
     19 H2          1.0039    1.9031    0.0027 H         1 <0>         0.0581
     20 H3         -0.5459    1.8868   -0.8726 H         1 <0>         0.0657
     21 H4         -0.5289    1.8773    0.9072 H         1 <0>         0.0571
     22 H5         -1.0205   -0.3814    0.0098 H         1 <0>         0.0793
     23 H6          0.5123   -0.3556   -0.8948 H         1 <0>         0.0802
     24 H7          2.6396   -0.5115    0.2593 H         1 <0>         0.1375
     25 H8          3.8388   -1.3253    2.2467 H         1 <0>         0.1292
     26 H9          0.1430   -1.4061    4.4201 H         1 <0>         0.1310
     27 H10        -1.0357   -0.5823    2.4246 H         1 <0>         0.1350
     28 H11         5.2136   -3.1077    7.2582 H         1 <0>         0.2091
     29 H12         2.2463   -2.0065   10.0802 H         1 <0>         0.0896
     30 H13         3.7125   -1.5014    9.2064 H         1 <0>         0.1062
     31 H14         2.1159   -0.9196    8.6766 H         1 <0>         0.0838
     32 H15         0.5890   -2.5209    7.7189 H         1 <0>         0.4345
     33 H16         1.1391   -4.6415    9.6733 H         1 <0>         0.1242
     34 H17         0.6833   -2.9649   10.0600 H         1 <0>         0.1255
     35 H18        -0.4727   -4.0321    9.2274 H         1 <0>         0.1284
     36 H19         1.0109   -4.0729    7.3610 H         1 <0>         0.4315
@<TRIPOS>BOND
     1    1    2 1
     2    1   19 1
     3    1   20 1
     4    1   21 1
     5    2    3 1
     6    2   22 1
     7    2   23 1
     8    3    8 ar
     9    3    4 ar
    10    4    5 ar
    11    4   24 1
    12    5    6 ar
    13    5   25 1
    14    6    7 ar
    15    6    9 1
    16    7    8 ar
    17    7   26 1
    18    8   27 1
    19    9   13 1
    20    9   10 2
    21   10   11 1
    22   11   12 2
    23   11   14 1
    24   12   13 1
    25   12   28 1
    26   14   15 1
    27   14   16 1
    28   14   17 1
    29   16   29 1
    30   16   30 1
    31   16   31 1
    32   17   18 1
    33   17   32 1
    34   17   36 1
    35   18   33 1
    36   18   34 1
    37   18   35 1
@<TRIPOS>MOLECULE
ZINC76784821
   36    37     0     0     0
SMALL
USER_CHARGES

@<TRIPOS>ATOM
      1 C1         -0.0187    1.5258    0.0104 C.3       1 <0>        -0.1491
      2 C2          0.0021   -0.0041    0.0020 C.3       1 <0>        -0.0963
      3 C3          0.7309   -0.5033    1.2229 C.ar      1 <0>        -0.0409
      4 C4          2.0982   -0.7086    1.1728 C.ar      1 <0>        -0.1137
      5 C5          2.7715   -1.1651    2.2872 C.ar      1 <0>        -0.0780
      6 C6          2.0704   -1.4197    3.4666 C.ar      1 <0>        -0.0492
      7 C7          0.6914   -1.2106    3.5105 C.ar      1 <0>        -0.0607
      8 C8          0.0308   -0.7488    2.3906 C.ar      1 <0>        -0.1206
      9 C9          2.7856   -1.9096    4.6645 C.2       1 <0>         0.1904
     10 N1          2.3088   -2.2125    5.8638 N.2       1 <0>        -0.5385
     11 C10         3.0969   -2.6384    6.8227 C.2       1 <0>         0.0031
     12 C11         4.4299   -2.7757    6.5933 C.2       1 <0>        -0.1812
     13 S1          4.5252   -2.2603    4.8833 S.3       1 <0>         0.0953
     14 C12         2.5254   -2.9745    8.1760 C.3       1 <0>         0.1156
     15 H1          3.2438   -2.7062    8.9506 H         1 <0>         0.1503
     16 C13         2.2339   -4.4747    8.2483 C.3       1 <0>        -0.1798
     17 N2          1.2799   -2.2232    8.3818 N.4       1 <0>        -0.5005
     18 C14         0.7861   -2.4579    9.7453 C.3       1 <0>        -0.0522
     19 H2          1.0039    1.9031    0.0027 H         1 <0>         0.0580
     20 H3         -0.5459    1.8868   -0.8726 H         1 <0>         0.0656
     21 H4         -0.5289    1.8773    0.9072 H         1 <0>         0.0569
     22 H5         -1.0205   -0.3814    0.0098 H         1 <0>         0.0794
     23 H6          0.5123   -0.3556   -0.8948 H         1 <0>         0.0803
     24 H7          2.6396   -0.5115    0.2593 H         1 <0>         0.1375
     25 H8          3.8388   -1.3253    2.2467 H         1 <0>         0.1292
     26 H9          0.1430   -1.4061    4.4201 H         1 <0>         0.1310
     27 H10        -1.0357   -0.5823    2.4246 H         1 <0>         0.1350
     28 H11         5.2136   -3.1077    7.2582 H         1 <0>         0.2091
     29 H12         3.1580   -5.0322    8.0956 H         1 <0>         0.1062
     30 H13         1.8205   -4.7178    9.2271 H         1 <0>         0.0896
     31 H14         1.5155   -4.7430    7.4737 H         1 <0>         0.0838
     32 H15         1.4561   -1.2381    8.2528 H         1 <0>         0.4315
     33 H16         0.5958   -3.5221    9.8847 H         1 <0>         0.1255
     34 H17         1.5342   -2.1253   10.4649 H         1 <0>         0.1242
     35 H18        -0.1380   -1.9005    9.8981 H         1 <0>         0.1284
     36 H19         0.5874   -2.5311    7.7157 H         1 <0>         0.4345
@<TRIPOS>BOND
     1    1    2 1
     2    1   19 1
     3    1   20 1
     4    1   21 1
     5    2    3 1
     6    2   22 1
     7    2   23 1
     8    3    8 ar
     9    3    4 ar
    10    4    5 ar
    11    4   24 1
    12    5    6 ar
    13    5   25 1
    14    6    7 ar
    15    6    9 1
    16    7    8 ar
    17    7   26 1
    18    8   27 1
    19    9   13 1
    20    9   10 2
    21   10   11 1
    22   11   12 2
    23   11   14 1
    24   12   13 1
    25   12   28 1
    26   14   15 1
    27   14   16 1
    28   14   17 1
    29   16   29 1
    30   16   30 1
    31   16   31 1
    32   17   18 1
    33   17   32 1
    34   17   36 1
    35   18   33 1
    36   18   34 1
    37   18   35 1
@<TRIPOS>MOLECULE
ZINC76784822
   39    40     0     0     0
SMALL
USER_CHARGES

@<TRIPOS>ATOM
      1 C1         -0.0187    1.5258    0.0104 C.3       1 <0>        -0.1797
      2 C2          0.0021   -0.0041    0.0020 C.3       1 <0>         0.1155
      3 H1          0.5123   -0.3556   -0.8948 H         1 <0>         0.1502
      4 C3         -1.4117   -0.5257    0.0127 C.2       1 <0>         0.0032
      5 C4         -2.0955   -0.6636   -1.1543 C.2       1 <0>        -0.1814
      6 S1         -3.6551   -1.2968   -0.5500 S.3       1 <0>         0.0950
      7 C5         -3.2273   -1.3085    1.1861 C.2       1 <0>         0.1908
      8 N1         -1.9831   -0.8526    1.1479 N.2       1 <0>        -0.5386
      9 C6         -4.0403   -1.7209    2.3503 C.ar      1 <0>        -0.0489
     10 C7         -3.5091   -1.6443    3.6384 C.ar      1 <0>        -0.0605
     11 C8         -4.2729   -2.0307    4.7204 C.ar      1 <0>        -0.1205
     12 C9         -5.5627   -2.4938    4.5304 C.ar      1 <0>        -0.0352
     13 C10        -6.0951   -2.5726    3.2558 C.ar      1 <0>        -0.1109
     14 C11        -5.3441   -2.1830    2.1660 C.ar      1 <0>        -0.0785
     15 C12        -6.3912   -2.9146    5.7168 C.3       1 <0>        -0.0656
     16 C13        -7.6540   -2.0538    5.7881 C.3       1 <0>        -0.1481
     17 C14        -6.7844   -4.3857    5.5682 C.3       1 <0>        -0.1479
     18 N2          0.7126   -0.4907    1.1921 N.4       1 <0>        -0.5005
     19 C15         2.1220   -0.0825    1.1220 C.3       1 <0>        -0.0521
     20 H2          1.0039    1.9031    0.0027 H         1 <0>         0.0896
     21 H3         -0.5459    1.8868   -0.8726 H         1 <0>         0.1062
     22 H4         -0.5289    1.8773    0.9072 H         1 <0>         0.0838
     23 H5         -1.7835   -0.4498   -2.1659 H         1 <0>         0.2090
     24 H6         -2.5021   -1.2837    3.7880 H         1 <0>         0.1309
     25 H7         -3.8630   -1.9719    5.7178 H         1 <0>         0.1348
     26 H8         -7.1025   -2.9353    3.1141 H         1 <0>         0.1370
     27 H9         -5.7626   -2.2402    1.1720 H         1 <0>         0.1290
     28 H10        -5.8105   -2.7842    6.6300 H         1 <0>         0.0841
     29 H11        -8.2347   -2.1842    4.8749 H         1 <0>         0.0592
     30 H12        -8.2532   -2.3581    6.6463 H         1 <0>         0.0656
     31 H13        -7.3739   -1.0057    5.8940 H         1 <0>         0.0578
     32 H14        -7.3836   -4.6901    6.4264 H         1 <0>         0.0656
     33 H15        -7.3651   -4.5161    4.6550 H         1 <0>         0.0592
     34 H16        -5.8847   -4.9989    5.5174 H         1 <0>         0.0576
     35 H17         0.2896   -0.0986    2.0201 H         1 <0>         0.4345
     36 H18         2.1837    1.0050    1.0814 H         1 <0>         0.1255
     37 H19         2.6492   -0.4436    2.0051 H         1 <0>         0.1284
     38 H20         2.5788   -0.5061    0.2276 H         1 <0>         0.1242
     39 H21         0.6554   -1.4974    1.2298 H         1 <0>         0.4315
@<TRIPOS>BOND
     1    1    2 1
     2    1   20 1
     3    1   21 1
     4    1   22 1
     5    2    3 1
     6    2    4 1
     7    2   18 1
     8    4    8 1
     9    4    5 2
    10    5    6 1
    11    5   23 1
    12    6    7 1
    13    7    8 2
    14    7    9 1
    15    9   14 ar
    16    9   10 ar
    17   10   11 ar
    18   10   24 1
    19   11   12 ar
    20   11   25 1
    21   12   13 ar
    22   12   15 1
    23   13   14 ar
    24   13   26 1
    25   14   27 1
    26   15   16 1
    27   15   17 1
    28   15   28 1
    29   16   29 1
    30   16   30 1
    31   16   31 1
    32   17   32 1
    33   17   33 1
    34   17   34 1
    35   18   19 1
    36   18   35 1
    37   18   39 1
    38   19   36 1
    39   19   37 1
    40   19   38 1
@<TRIPOS>MOLECULE
ZINC76784825
   39    40     0     0     0
SMALL
USER_CHARGES

@<TRIPOS>ATOM
      1 C1         -0.0187    1.5258    0.0104 C.3       1 <0>        -0.1798
      2 C2          0.0021   -0.0041    0.0020 C.3       1 <0>         0.1155
      3 H1          0.5123   -0.3556   -0.8948 H         1 <0>         0.1503
      4 C3          0.7309   -0.5033    1.2229 C.2       1 <0>         0.0031
      5 C4          2.0863   -0.6103    1.2105 C.2       1 <0>        -0.1813
      6 S1          2.3834   -1.2290    2.8621 S.3       1 <0>         0.0952
      7 C5          0.6749   -1.2774    3.3870 C.2       1 <0>         0.1905
      8 N1          0.0590   -0.8303    2.3016 N.2       1 <0>        -0.5385
      9 C6          0.1032   -1.6976    4.6844 C.ar      1 <0>        -0.0488
     10 C7         -1.2772   -1.6632    4.8860 C.ar      1 <0>        -0.0606
     11 C8         -1.8042   -2.0566    6.0988 C.ar      1 <0>        -0.1204
     12 C9         -0.9672   -2.4841    7.1141 C.ar      1 <0>        -0.0353
     13 C10         0.4023   -2.5201    6.9208 C.ar      1 <0>        -0.1108
     14 C11         0.9415   -2.1357    5.7104 C.ar      1 <0>        -0.0785
     15 C12        -1.5497   -2.9118    8.4365 C.3       1 <0>        -0.0656
     16 C13        -1.1743   -4.3693    8.7116 C.3       1 <0>        -0.1479
     17 C14        -0.9933   -2.0228    9.5504 C.3       1 <0>        -0.1481
     18 N2         -1.3761   -0.5125    0.0124 N.4       1 <0>        -0.5005
     19 C15        -2.0500   -0.1262   -1.2343 C.3       1 <0>        -0.0521
     20 H2          1.0039    1.9031    0.0027 H         1 <0>         0.1062
     21 H3         -0.5459    1.8868   -0.8726 H         1 <0>         0.0896
     22 H4         -0.5289    1.8773    0.9072 H         1 <0>         0.0838
     23 H5          2.7887   -0.3847    0.4219 H         1 <0>         0.2090
     24 H6         -1.9315   -1.3290    4.0944 H         1 <0>         0.1309
     25 H7         -2.8723   -2.0304    6.2561 H         1 <0>         0.1348
     26 H8          1.0503   -2.8545    7.7175 H         1 <0>         0.1370
     27 H9          2.0103   -2.1692    5.5590 H         1 <0>         0.1290
     28 H10        -2.6350   -2.8163    8.4034 H         1 <0>         0.0841
     29 H11        -0.0890   -4.4649    8.7448 H         1 <0>         0.0592
     30 H12        -1.5956   -4.6787    9.6681 H         1 <0>         0.0656
     31 H13        -1.5707   -5.0027    7.9181 H         1 <0>         0.0576
     32 H14        -1.4146   -2.3322   10.5069 H         1 <0>         0.0656
     33 H15         0.0920   -2.1184    9.5835 H         1 <0>         0.0592
     34 H16        -1.2608   -0.9845    9.3544 H         1 <0>         0.0578
     35 H17        -1.3629   -1.5185    0.0898 H         1 <0>         0.4315
     36 H18        -1.5132   -0.5489   -2.0836 H         1 <0>         0.1242
     37 H19        -3.0726   -0.5034   -1.2266 H         1 <0>         0.1284
     38 H20        -2.0643    0.9605   -1.3179 H         1 <0>         0.1254
     39 H21        -1.8730   -0.1212    0.7986 H         1 <0>         0.4345
@<TRIPOS>BOND
     1    1    2 1
     2    1   20 1
     3    1   21 1
     4    1   22 1
     5    2    3 1
     6    2    4 1
     7    2   18 1
     8    4    8 1
     9    4    5 2
    10    5    6 1
    11    5   23 1
    12    6    7 1
    13    7    8 2
    14    7    9 1
    15    9   14 ar
    16    9   10 ar
    17   10   11 ar
    18   10   24 1
    19   11   12 ar
    20   11   25 1
    21   12   13 ar
    22   12   15 1
    23   13   14 ar
    24   13   26 1
    25   14   27 1
    26   15   16 1
    27   15   17 1
    28   15   28 1
    29   16   29 1
    30   16   30 1
    31   16   31 1
    32   17   32 1
    33   17   33 1
    34   17   34 1
    35   18   19 1
    36   18   35 1
    37   18   39 1
    38   19   36 1
    39   19   37 1
    40   19   38 1
@<TRIPOS>MOLECULE
ZINC76784826
   42    43     0     0     0
SMALL
USER_CHARGES

@<TRIPOS>ATOM
      1 C1         -0.0187    1.5258    0.0104 C.3       1 <0>        -0.1798
      2 C2          0.0021   -0.0041    0.0020 C.3       1 <0>         0.1155
      3 H1          0.5293   -0.3651    0.8851 H         1 <0>         0.1503
      4 C3         -1.4117   -0.5257    0.0127 C.2       1 <0>         0.0032
      5 C4         -2.0766   -0.6667    1.1902 C.2       1 <0>        -0.1816
      6 S1         -3.6458   -1.2984    0.6094 S.3       1 <0>         0.0945
      7 C5         -3.2458   -1.3057   -1.1333 C.2       1 <0>         0.1912
      8 N1         -2.0050   -0.8395   -1.1149 N.2       1 <0>        -0.5387
      9 C6         -4.0772   -1.7160   -2.2852 C.ar      1 <0>        -0.0493
     10 C7         -3.5625   -1.6476   -3.5805 C.ar      1 <0>        -0.0612
     11 C8         -4.3434   -2.0319   -4.6510 C.ar      1 <0>        -0.1181
     12 C9         -5.6343   -2.4838   -4.4425 C.ar      1 <0>        -0.0290
     13 C10        -6.1507   -2.5535   -3.1609 C.ar      1 <0>        -0.1173
     14 C11        -5.3779   -2.1786   -2.0812 C.ar      1 <0>        -0.0781
     15 C12        -6.4818   -2.9014   -5.6166 C.3       1 <0>        -0.0373
     16 C13        -5.7987   -4.0550   -6.3539 C.3       1 <0>        -0.1413
     17 C14        -7.8548   -3.3566   -5.1182 C.3       1 <0>        -0.1503
     18 C15        -6.6522   -1.7167   -6.5696 C.3       1 <0>        -0.1416
     19 N2          0.6897   -0.4778   -1.2066 N.4       1 <0>        -0.5005
     20 C16         2.1002   -0.0703   -1.1590 C.3       1 <0>        -0.0521
     21 H2          1.0039    1.9031    0.0027 H         1 <0>         0.0895
     22 H3         -0.5459    1.8868   -0.8726 H         1 <0>         0.0838
     23 H4         -0.5289    1.8773    0.9072 H         1 <0>         0.1062
     24 H5         -1.7482   -0.4560    2.1973 H         1 <0>         0.2089
     25 H6         -2.5552   -1.2943   -3.7446 H         1 <0>         0.1304
     26 H7         -3.9463   -1.9795   -5.6540 H         1 <0>         0.1343
     27 H8         -7.1593   -2.9069   -3.0048 H         1 <0>         0.1420
     28 H9         -5.7803   -2.2384   -1.0808 H         1 <0>         0.1287
     29 H10        -5.6774   -4.8990   -5.6749 H         1 <0>         0.0585
     30 H11        -6.4117   -4.3571   -7.2031 H         1 <0>         0.0659
     31 H12        -4.8205   -3.7307   -6.7090 H         1 <0>         0.0581
     32 H13        -8.3415   -2.5348   -4.5929 H         1 <0>         0.0613
     33 H14        -8.4678   -3.6587   -5.9673 H         1 <0>         0.0656
     34 H15        -7.7335   -4.2006   -4.4392 H         1 <0>         0.0612
     35 H16        -5.6740   -1.3925   -6.9247 H         1 <0>         0.0582
     36 H17        -7.2651   -2.0188   -7.4188 H         1 <0>         0.0659
     37 H18        -7.1388   -0.8949   -6.0443 H         1 <0>         0.0587
     38 H19         0.6317   -1.4840   -1.2540 H         1 <0>         0.4315
     39 H20         2.1628    1.0167   -1.1079 H         1 <0>         0.1254
     40 H21         2.5740   -0.5034   -0.2781 H         1 <0>         0.1242
     41 H22         2.6104   -0.4218   -2.0558 H         1 <0>         0.1283
     42 H23         0.2511   -0.0769   -2.0221 H         1 <0>         0.4345
@<TRIPOS>BOND
     1    1    2 1
     2    1   21 1
     3    1   22 1
     4    1   23 1
     5    2    3 1
     6    2    4 1
     7    2   19 1
     8    4    8 1
     9    4    5 2
    10    5    6 1
    11    5   24 1
    12    6    7 1
    13    7    8 2
    14    7    9 1
    15    9   14 ar
    16    9   10 ar
    17   10   11 ar
    18   10   25 1
    19   11   12 ar
    20   11   26 1
    21   12   13 ar
    22   12   15 1
    23   13   14 ar
    24   13   27 1
    25   14   28 1
    26   15   16 1
    27   15   17 1
    28   15   18 1
    29   16   29 1
    30   16   30 1
    31   16   31 1
    32   17   32 1
    33   17   33 1
    34   17   34 1
    35   18   35 1
    36   18   36 1
    37   18   37 1
    38   19   20 1
    39   19   38 1
    40   19   42 1
    41   20   39 1
    42   20   40 1
    43   20   41 1
@<TRIPOS>MOLECULE
ZINC76784828
   42    43     0     0     0
SMALL
USER_CHARGES

@<TRIPOS>ATOM
      1 C1         -0.0187    1.5258    0.0104 C.3       1 <0>        -0.1797
      2 C2          0.0021   -0.0041    0.0020 C.3       1 <0>         0.1155
      3 H1          0.5293   -0.3651    0.8851 H         1 <0>         0.1502
      4 C3          0.7074   -0.4901   -1.2379 C.2       1 <0>         0.0032
      5 C4          2.0620   -0.6067   -1.2492 C.2       1 <0>        -0.1817
      6 S1          2.3278   -1.2026   -2.9144 S.3       1 <0>         0.0946
      7 C5          0.6107   -1.2312   -3.4120 C.2       1 <0>         0.1912
      8 N1          0.0149   -0.8065   -2.3066 N.2       1 <0>        -0.5388
      9 C6          0.0152   -1.6271   -4.7063 C.ar      1 <0>        -0.0493
     10 C7         -1.3670   -1.5684   -4.8888 C.ar      1 <0>        -0.0611
     11 C8         -1.9164   -1.9392   -6.0989 C.ar      1 <0>        -0.1181
     12 C9         -1.1000   -2.3691   -7.1299 C.ar      1 <0>        -0.0290
     13 C10         0.2711   -2.4301   -6.9552 C.ar      1 <0>        -0.1173
     14 C11         0.8335   -2.0557   -5.7523 C.ar      1 <0>        -0.0781
     15 C12        -1.7070   -2.7731   -8.4487 C.3       1 <0>        -0.0373
     16 C13        -2.4659   -1.5864   -9.0458 C.3       1 <0>        -0.1416
     17 C14        -0.5975   -3.2047   -9.4099 C.3       1 <0>        -0.1503
     18 C15        -2.6737   -3.9386   -8.2295 C.3       1 <0>        -0.1413
     19 N2         -1.3761   -0.5125    0.0124 N.4       1 <0>        -0.5005
     20 C16        -2.0260   -0.1396    1.2760 C.3       1 <0>        -0.0521
     21 H2          1.0039    1.9031    0.0027 H         1 <0>         0.1062
     22 H3         -0.5459    1.8868   -0.8726 H         1 <0>         0.0838
     23 H4         -0.5289    1.8773    0.9072 H         1 <0>         0.0895
     24 H5          2.7788   -0.3973   -0.4690 H         1 <0>         0.2089
     25 H6         -2.0054   -1.2336   -4.0846 H         1 <0>         0.1305
     26 H7         -2.9860   -1.8942   -6.2414 H         1 <0>         0.1343
     27 H8          0.9028   -2.7669   -7.7638 H         1 <0>         0.1420
     28 H9          1.9044   -2.0988   -5.6189 H         1 <0>         0.1287
     29 H10        -1.7772   -0.7561   -9.2019 H         1 <0>         0.0587
     30 H11        -2.9050   -1.8786   -9.9997 H         1 <0>         0.0659
     31 H12        -3.2563   -1.2789   -8.3610 H         1 <0>         0.0582
     32 H13        -0.0569   -4.0502   -8.9845 H         1 <0>         0.0613
     33 H14        -1.0366   -3.4969  -10.3638 H         1 <0>         0.0656
     34 H15         0.0912   -2.3744   -9.5660 H         1 <0>         0.0613
     35 H16        -3.4641   -3.6312   -7.5448 H         1 <0>         0.0581
     36 H17        -3.1127   -4.2308   -9.1834 H         1 <0>         0.0659
     37 H18        -2.1330   -4.7841   -7.8042 H         1 <0>         0.0585
     38 H19        -1.8879   -0.1129   -0.7598 H         1 <0>         0.4345
     39 H20        -1.4732   -0.5714    2.1102 H         1 <0>         0.1242
     40 H21        -2.0386    0.9461    1.3715 H         1 <0>         0.1254
     41 H22        -3.0486   -0.5169    1.2837 H         1 <0>         0.1283
     42 H23        -1.3644   -1.5176   -0.0760 H         1 <0>         0.4315
@<TRIPOS>BOND
     1    1    2 1
     2    1   21 1
     3    1   22 1
     4    1   23 1
     5    2    3 1
     6    2    4 1
     7    2   19 1
     8    4    8 1
     9    4    5 2
    10    5    6 1
    11    5   24 1
    12    6    7 1
    13    7    8 2
    14    7    9 1
    15    9   14 ar
    16    9   10 ar
    17   10   11 ar
    18   10   25 1
    19   11   12 ar
    20   11   26 1
    21   12   13 ar
    22   12   15 1
    23   13   14 ar
    24   13   27 1
    25   14   28 1
    26   15   16 1
    27   15   17 1
    28   15   18 1
    29   16   29 1
    30   16   30 1
    31   16   31 1
    32   17   32 1
    33   17   33 1
    34   17   34 1
    35   18   35 1
    36   18   36 1
    37   18   37 1
    38   19   20 1
    39   19   38 1
    40   19   42 1
    41   20   39 1
    42   20   40 1
    43   20   41 1
@<TRIPOS>MOLECULE
ZINC80803067
   36    37     0     0     0
SMALL
USER_CHARGES

@<TRIPOS>ATOM
      1 C1         -0.0184    1.5028    0.0103 C.3       1 <0>        -0.1192
      2 C2          0.0021   -0.0041    0.0020 C.ar      1 <0>        -0.0793
      3 C3          0.0058   -0.6877   -1.2008 C.ar      1 <0>        -0.0880
      4 C4          0.0245   -2.0710   -1.2171 C.ar      1 <0>        -0.0712
      5 C5          0.0401   -2.7777   -0.0322 C.ar      1 <0>        -0.0926
      6 C6          0.0369   -2.0941    1.1844 C.ar      1 <0>        -0.0324
      7 C7          0.0228   -0.6988    1.1938 C.ar      1 <0>        -0.0745
      8 C8          0.0530   -2.8452    2.4581 C.2       1 <0>         0.1890
      9 N1          0.0475   -2.3902    3.7031 N.2       1 <0>        -0.5366
     10 C9          0.0639   -3.2095    4.7281 C.2       1 <0>         0.0024
     11 C10         0.0869   -4.5531    4.5211 C.2       1 <0>        -0.1804
     12 S1          0.0771   -4.6117    2.7336 S.3       1 <0>         0.0978
     13 C11         0.0577   -2.6621    6.1321 C.3       1 <0>         0.1156
     14 H1          0.6600   -3.3040    6.7750 H         1 <0>         0.1504
     15 C12        -1.3791   -2.6192    6.6564 C.3       1 <0>        -0.1798
     16 N2          0.6192   -1.3047    6.1310 N.4       1 <0>        -0.5006
     17 C13         0.7241   -0.8170    7.5127 C.3       1 <0>        -0.0521
     18 C14         0.0274   -2.8075   -2.5318 C.3       1 <0>        -0.1227
     19 H2          1.0042    1.8801    0.0026 H         1 <0>         0.0769
     20 H3         -0.5455    1.8639   -0.8728 H         1 <0>         0.0746
     21 H4         -0.5286    1.8543    0.9071 H         1 <0>         0.0690
     22 H5         -0.0064   -0.1392   -2.1310 H         1 <0>         0.1348
     23 H6          0.0543   -3.8575   -0.0462 H         1 <0>         0.1285
     24 H7          0.0241   -0.1639    2.1321 H         1 <0>         0.1304
     25 H8          0.1025   -5.3611    5.2376 H         1 <0>         0.2094
     26 H9         -1.7958   -3.6264    6.6572 H         1 <0>         0.1063
     27 H10        -1.3836   -2.2233    7.6719 H         1 <0>         0.0897
     28 H11        -1.9814   -1.9774    6.0135 H         1 <0>         0.0838
     29 H12         1.5358   -1.3202    5.7093 H         1 <0>         0.4316
     30 H13        -0.2660   -0.8002    7.9682 H         1 <0>         0.1255
     31 H14         1.3754   -1.4791    8.0832 H         1 <0>         0.1242
     32 H15         1.1408    0.1902    7.5118 H         1 <0>         0.1284
     33 H16         1.0556   -2.9711   -2.8544 H         1 <0>         0.0791
     34 H17        -0.4728   -3.7684   -2.4111 H         1 <0>         0.0721
     35 H18        -0.4986   -2.2157   -3.2809 H         1 <0>         0.0753
     36 H19         0.0164   -0.6918    5.6028 H         1 <0>         0.4345
@<TRIPOS>BOND
     1    1    2 1
     2    1   19 1
     3    1   20 1
     4    1   21 1
     5    2    7 ar
     6    2    3 ar
     7    3    4 ar
     8    3   22 1
     9    4    5 ar
    10    4   18 1
    11    5    6 ar
    12    5   23 1
    13    6    7 ar
    14    6    8 1
    15    7   24 1
    16    8   12 1
    17    8    9 2
    18    9   10 1
    19   10   11 2
    20   10   13 1
    21   11   12 1
    22   11   25 1
    23   13   14 1
    24   13   15 1
    25   13   16 1
    26   15   26 1
    27   15   27 1
    28   15   28 1
    29   16   17 1
    30   16   29 1
    31   16   36 1
    32   17   30 1
    33   17   31 1
    34   17   32 1
    35   18   33 1
    36   18   34 1
    37   18   35 1
@<TRIPOS>MOLECULE
ZINC43315085
   36    37     0     0     0
SMALL
USER_CHARGES

@<TRIPOS>ATOM
      1 C1          0.3520    1.5465   -0.5204 C.3       1 <0>        -0.1900
      2 C2          0.2776    0.0234   -0.3958 C.3       1 <0>        -0.0094
      3 N1          0.9394   -0.3993    0.8456 N.4       1 <0>        -0.5089
      4 C3          0.8680   -1.8617    0.9652 C.3       1 <0>         0.0784
      5 C4          1.5470   -2.2953    2.2388 C.2       1 <0>        -0.0145
      6 C5          0.8145   -2.4973    3.3662 C.2       1 <0>        -0.1820
      7 S1          2.0998   -2.9795    4.5126 S.3       1 <0>         0.0896
      8 C6          3.4684   -2.8597    3.3681 C.2       1 <0>         0.1916
      9 N2          2.8455   -2.4838    2.2600 N.2       1 <0>        -0.4995
     10 C7          4.9068   -3.1162    3.5952 C.ar      1 <0>        -0.0439
     11 C8          5.5443   -2.5869    4.7183 C.ar      1 <0>        -0.0853
     12 C9          6.8865   -2.8298    4.9243 C.ar      1 <0>        -0.1173
     13 C10         7.6006   -3.5965    4.0204 C.ar      1 <0>        -0.0830
     14 C11         6.9748   -4.1237    2.9050 C.ar      1 <0>        -0.0844
     15 C12         5.6313   -3.8933    2.6906 C.ar      1 <0>        -0.0335
     16 C13         4.9495   -4.4739    1.4786 C.3       1 <0>        -0.1147
     17 C14         7.7605   -4.9567    1.9253 C.3       1 <0>        -0.1218
     18 H1          1.3961    1.8588   -0.5407 H         1 <0>         0.0806
     19 H2         -0.1391    1.8602   -1.4415 H         1 <0>         0.1081
     20 H3         -0.1480    2.0057    0.3325 H         1 <0>         0.0804
     21 H4         -0.7665   -0.2889   -0.3755 H         1 <0>         0.1323
     22 H5          0.7776   -0.4357   -1.2487 H         1 <0>         0.1324
     23 H6          1.9060   -0.1102    0.8268 H         1 <0>         0.4311
     24 H7         -0.1761   -2.1740    0.9856 H         1 <0>         0.1450
     25 H8          1.3680   -2.3208    0.1124 H         1 <0>         0.1443
     26 H9         -0.2487   -2.3947    3.5255 H         1 <0>         0.2092
     27 H10         4.9882   -1.9881    5.4243 H         1 <0>         0.1287
     28 H11         7.3811   -2.4205    5.7927 H         1 <0>         0.1370
     29 H12         8.6512   -3.7838    4.1862 H         1 <0>         0.1348
     30 H13         5.0386   -3.7789    0.6437 H         1 <0>         0.0787
     31 H14         5.4211   -5.4207    1.2151 H         1 <0>         0.0750
     32 H15         3.8956   -4.6423    1.7003 H         1 <0>         0.0617
     33 H16         7.7152   -6.0048    2.2213 H         1 <0>         0.0776
     34 H17         7.3355   -4.8421    0.9282 H         1 <0>         0.0719
     35 H18         8.7990   -4.6258    1.9180 H         1 <0>         0.0741
     36 H19         0.4766    0.0257    1.6351 H         1 <0>         0.4258
@<TRIPOS>BOND
     1    1    2 1
     2    1   18 1
     3    1   19 1
     4    1   20 1
     5    2    3 1
     6    2   21 1
     7    2   22 1
     8    3    4 1
     9    3   23 1
    10    3   36 1
    11    4    5 1
    12    4   24 1
    13    4   25 1
    14    5    9 1
    15    5    6 2
    16    6    7 1
    17    6   26 1
    18    7    8 1
    19    8    9 2
    20    8   10 1
    21   10   15 ar
    22   10   11 ar
    23   11   12 ar
    24   11   27 1
    25   12   13 ar
    26   12   28 1
    27   13   14 ar
    28   13   29 1
    29   14   15 ar
    30   14   17 1
    31   15   16 1
    32   16   30 1
    33   16   31 1
    34   16   32 1
    35   17   33 1
    36   17   34 1
    37   17   35 1
@<TRIPOS>MOLECULE
ZINC19944344
   39    41     0     0     0
SMALL
USER_CHARGES
1-[[2-(p-tolyl)thiazol-4-yl]methyl]piperazine
@<TRIPOS>ATOM
      1 C1          7.3265    4.9042    6.7713 C.3       1 <0>        -0.1272
      2 C2          6.5921    4.7773    5.4615 C.ar      1 <0>        -0.0532
      3 C3          7.2283    5.1129    4.2797 C.ar      1 <0>        -0.1191
      4 C4          6.5613    4.9994    3.0773 C.ar      1 <0>        -0.0825
      5 C5          5.2422    4.5448    3.0549 C.ar      1 <0>        -0.0400
      6 C6          4.6043    4.2133    4.2509 C.ar      1 <0>        -0.0601
      7 C7          5.2843    4.3260    5.4461 C.ar      1 <0>        -0.1242
      8 C8          4.5214    4.4206    1.7697 C.2       1 <0>         0.1780
      9 N1          3.2814    4.0140    1.5365 N.2       1 <0>        -0.4914
     10 C9          2.7980    3.9660    0.3175 C.2       1 <0>         0.0647
     11 C10         3.5765    4.3332   -0.7350 C.2       1 <0>        -0.2178
     12 S1          5.0873    4.7790    0.1120 S.3       1 <0>         0.0321
     13 C11         1.3844    3.4988    0.0839 C.3       1 <0>         0.1263
     14 N2          1.3610    2.0324   -0.0000 N.3       1 <0>        -0.5322
     15 C12        -0.0187    1.5263    0.0104 C.3       1 <0>         0.0237
     16 C13         0.0021   -0.0041    0.0020 C.3       1 <0>         0.0033
     17 N3          0.7238   -0.4751   -1.1883 N.4       1 <0>        -0.5373
     18 C14         2.1034    0.0310   -1.1988 C.3       1 <0>         0.0019
     19 C15         2.0826    1.5614   -1.1904 C.3       1 <0>         0.0163
     20 H1          8.3454    5.2750    6.5859 H         1 <0>         0.0715
     21 H2          7.3777    3.9200    7.2598 H         1 <0>         0.0773
     22 H3          6.7924    5.6103    7.4242 H         1 <0>         0.0779
     23 H4          8.2494    5.4643    4.2984 H         1 <0>         0.1346
     24 H5          7.0590    5.2620    2.1555 H         1 <0>         0.1272
     25 H6          3.5819    3.8655    4.2407 H         1 <0>         0.1350
     26 H7          4.7932    4.0655    6.3721 H         1 <0>         0.1333
     27 H8          3.3460    4.3516   -1.7899 H         1 <0>         0.1958
     28 H9          0.7468    3.8287    0.9173 H         1 <0>         0.1052
     29 H10         1.0078    3.9260   -0.8572 H         1 <0>         0.0640
     30 H11        -0.5329    1.8820    0.9154 H         1 <0>         0.1239
     31 H12        -0.5500    1.8917   -0.8808 H         1 <0>         0.0612
     32 H13         0.5090   -0.3689    0.9075 H         1 <0>         0.1360
     33 H14        -1.0297   -0.3847   -0.0191 H         1 <0>         0.1384
     34 H15         0.7503   -1.5748   -1.1897 H         1 <0>         0.4568
     35 H16         2.6348   -0.3344   -0.3076 H         1 <0>         0.1347
     36 H17         2.6176   -0.3247   -2.1038 H         1 <0>         0.1373
     37 H18         1.5752    1.9271   -2.0953 H         1 <0>         0.0615
     38 H19         3.1141    1.9430   -1.1688 H         1 <0>         0.1202
     39 H20         0.2096   -0.1196   -2.0934 H         1 <0>         0.4470
@<TRIPOS>BOND
     1    1    2 1
     2    1   20 1
     3    1   21 1
     4    1   22 1
     5    2    7 ar
     6    2    3 ar
     7    3    4 ar
     8    3   23 1
     9    4    5 ar
    10    4   24 1
    11    5    6 ar
    12    5    8 1
    13    6    7 ar
    14    6   25 1
    15    7   26 1
    16    8   12 1
    17    8    9 2
    18    9   10 1
    19   10   11 2
    20   10   13 1
    21   11   12 1
    22   11   27 1
    23   13   14 1
    24   13   28 1
    25   13   29 1
    26   14   19 1
    27   14   15 1
    28   15   16 1
    29   15   30 1
    30   15   31 1
    31   16   17 1
    32   16   32 1
    33   16   33 1
    34   17   18 1
    35   17   34 1
    36   17   39 1
    37   18   19 1
    38   18   35 1
    39   18   36 1
    40   19   37 1
    41   19   38 1
@<TRIPOS>MOLECULE
ZINC49825572
   43    44     0     0     0
SMALL
USER_CHARGES

@<TRIPOS>ATOM
      1 C1          0.0050    1.5880   -0.3176 C.3       1 <0>        -0.1537
      2 C2         -0.0033    0.0601   -0.2375 C.3       1 <0>        -0.1481
      3 C3          0.7565   -0.5174   -1.4333 C.3       1 <0>        -0.0127
      4 N1          0.8590   -1.9759   -1.2903 N.4       1 <0>        -0.3812
      5 C4         -0.4809   -2.5717   -1.3766 C.3       1 <0>        -0.0101
      6 C5         -0.3931   -4.0698   -1.0784 C.3       1 <0>         0.0451
      7 O1          0.0520   -4.2626    0.2658 O.3       1 <0>        -0.5793
      8 C6          1.7046   -2.5149   -2.3638 C.3       1 <0>         0.0707
      9 C7          3.1112   -1.9986   -2.2025 C.2       1 <0>        -0.0007
     10 C8          4.0393   -2.7447   -1.5463 C.2       1 <0>        -0.1838
     11 S1          5.4657   -1.6718   -1.6605 S.3       1 <0>         0.0877
     12 C9          4.6723   -0.3507   -2.5671 C.2       1 <0>         0.1877
     13 N2          3.4437   -0.8307   -2.6997 N.2       1 <0>        -0.5102
     14 C10         5.2361    0.9300   -3.0451 C.ar      1 <0>        -0.0508
     15 C11         4.4308    1.8352   -3.7376 C.ar      1 <0>        -0.0579
     16 C12         4.9629    3.0284   -4.1809 C.ar      1 <0>        -0.1237
     17 C13         6.2920    3.3282   -3.9406 C.ar      1 <0>        -0.0449
     18 C14         7.0959    2.4349   -3.2550 C.ar      1 <0>        -0.1180
     19 C15         6.5743    1.2412   -2.8005 C.ar      1 <0>        -0.0778
     20 C16         6.8668    4.6331   -4.4282 C.3       1 <0>        -0.1278
     21 H1          1.0340    1.9471   -0.3021 H         1 <0>         0.0650
     22 H2         -0.4769    1.9059   -1.2421 H         1 <0>         0.0671
     23 H3         -0.5363    1.9994    0.5344 H         1 <0>         0.0765
     24 H4          0.4786   -0.2579    0.6871 H         1 <0>         0.0825
     25 H5         -1.0323   -0.2990   -0.2530 H         1 <0>         0.0851
     26 H6          0.2219   -0.2792   -2.3529 H         1 <0>         0.1296
     27 H7          1.7563   -0.0850   -1.4718 H         1 <0>         0.1362
     28 H8         -1.1382   -2.0945   -0.6497 H         1 <0>         0.1410
     29 H9         -0.8805   -2.4238   -2.3799 H         1 <0>         0.1438
     30 H10        -1.3761   -4.5236   -1.2042 H         1 <0>         0.0963
     31 H11         0.3131   -4.5362   -1.7654 H         1 <0>         0.0711
     32 H12         0.2042   -5.1882    0.5008 H         1 <0>         0.4080
     33 H13         1.7089   -3.6036   -2.3110 H         1 <0>         0.1416
     34 H14         1.3104   -2.1995   -3.3299 H         1 <0>         0.1427
     35 H15         3.9421   -3.7159   -1.0840 H         1 <0>         0.2085
     36 H16         3.3933    1.6020   -3.9265 H         1 <0>         0.1341
     37 H17         4.3408    3.7297   -4.7170 H         1 <0>         0.1356
     38 H18         8.1327    2.6747   -3.0709 H         1 <0>         0.1374
     39 H19         7.2014    0.5470   -2.2610 H         1 <0>         0.1286
     40 H20         6.7440    5.3946   -3.6579 H         1 <0>         0.0812
     41 H21         7.9270    4.5044   -4.6461 H         1 <0>         0.0750
     42 H22         6.3450    4.9444   -5.3331 H         1 <0>         0.0745
     43 H23         1.2690   -2.1981   -0.3956 H         1 <0>         0.4278
@<TRIPOS>BOND
     1    1    2 1
     2    1   21 1
     3    1   22 1
     4    1   23 1
     5    2    3 1
     6    2   24 1
     7    2   25 1
     8    3    4 1
     9    3   26 1
    10    3   27 1
    11    4    5 1
    12    4    8 1
    13    4   43 1
    14    5    6 1
    15    5   28 1
    16    5   29 1
    17    6    7 1
    18    6   30 1
    19    6   31 1
    20    7   32 1
    21    8    9 1
    22    8   33 1
    23    8   34 1
    24    9   13 1
    25    9   10 2
    26   10   11 1
    27   10   35 1
    28   11   12 1
    29   12   13 2
    30   12   14 1
    31   14   19 ar
    32   14   15 ar
    33   15   16 ar
    34   15   36 1
    35   16   17 ar
    36   16   37 1
    37   17   18 ar
    38   17   20 1
    39   18   19 ar
    40   18   38 1
    41   19   39 1
    42   20   40 1
    43   20   41 1
    44   20   42 1
@<TRIPOS>MOLECULE
ZINC80803064
   36    37     0     0     0
SMALL
USER_CHARGES

@<TRIPOS>ATOM
      1 C1         -0.0184    1.5028    0.0103 C.3       1 <0>        -0.1191
      2 C2          0.0021   -0.0041    0.0020 C.ar      1 <0>        -0.0793
      3 C3          0.0058   -0.6877   -1.2008 C.ar      1 <0>        -0.0880
      4 C4          0.0245   -2.0710   -1.2171 C.ar      1 <0>        -0.0712
      5 C5          0.0401   -2.7777   -0.0322 C.ar      1 <0>        -0.0926
      6 C6          0.0369   -2.0941    1.1844 C.ar      1 <0>        -0.0324
      7 C7          0.0228   -0.6988    1.1938 C.ar      1 <0>        -0.0745
      8 C8          0.0530   -2.8452    2.4581 C.2       1 <0>         0.1890
      9 N1          0.0475   -2.3902    3.7031 N.2       1 <0>        -0.5366
     10 C9          0.0639   -3.2095    4.7281 C.2       1 <0>         0.0024
     11 C10         0.0869   -4.5531    4.5211 C.2       1 <0>        -0.1804
     12 S1          0.0771   -4.6117    2.7336 S.3       1 <0>         0.0977
     13 C11         0.0577   -2.6621    6.1321 C.3       1 <0>         0.1156
     14 H1         -0.5187   -3.3247    6.7778 H         1 <0>         0.1504
     15 C12         1.4945   -2.5687    6.6495 C.3       1 <0>        -0.1798
     16 N2         -0.5512   -1.3252    6.1338 N.4       1 <0>        -0.5006
     17 C13        -0.6666   -0.8414    7.5160 C.3       1 <0>        -0.0521
     18 C14         0.0274   -2.8075   -2.5318 C.3       1 <0>        -0.1227
     19 H2          1.0042    1.8801    0.0026 H         1 <0>         0.0773
     20 H3         -0.5455    1.8639   -0.8728 H         1 <0>         0.0745
     21 H4         -0.5286    1.8543    0.9071 H         1 <0>         0.0686
     22 H5         -0.0064   -0.1392   -2.1310 H         1 <0>         0.1348
     23 H6          0.0543   -3.8575   -0.0462 H         1 <0>         0.1285
     24 H7          0.0241   -0.1639    2.1321 H         1 <0>         0.1304
     25 H8          0.1025   -5.3611    5.2376 H         1 <0>         0.2094
     26 H9          1.4900   -2.1728    7.6650 H         1 <0>         0.0897
     27 H10         1.9463   -3.5607    6.6483 H         1 <0>         0.1063
     28 H11         2.0708   -1.9062    6.0038 H         1 <0>         0.0838
     29 H12         0.0272   -0.6916    5.6028 H         1 <0>         0.4345
     30 H13        -1.2914   -1.5260    8.0896 H         1 <0>         0.1242
     31 H14         0.3245   -0.7898    7.9668 H         1 <0>         0.1255
     32 H15        -1.1184    0.1505    7.5172 H         1 <0>         0.1284
     33 H16         1.0556   -2.9711   -2.8544 H         1 <0>         0.0792
     34 H17        -0.4728   -3.7684   -2.4111 H         1 <0>         0.0721
     35 H18        -0.4986   -2.2157   -3.2809 H         1 <0>         0.0753
     36 H19        -1.4687   -1.3730    5.7165 H         1 <0>         0.4316
@<TRIPOS>BOND
     1    1    2 1
     2    1   19 1
     3    1   20 1
     4    1   21 1
     5    2    7 ar
     6    2    3 ar
     7    3    4 ar
     8    3   22 1
     9    4    5 ar
    10    4   18 1
    11    5    6 ar
    12    5   23 1
    13    6    7 ar
    14    6    8 1
    15    7   24 1
    16    8   12 1
    17    8    9 2
    18    9   10 1
    19   10   11 2
    20   10   13 1
    21   11   12 1
    22   11   25 1
    23   13   14 1
    24   13   15 1
    25   13   16 1
    26   15   26 1
    27   15   27 1
    28   15   28 1
    29   16   17 1
    30   16   29 1
    31   16   36 1
    32   17   30 1
    33   17   31 1
    34   17   32 1
    35   18   33 1
    36   18   34 1
    37   18   35 1
@<TRIPOS>MOLECULE
ZINC70840850
   33    34     0     0     0
SMALL
USER_CHARGES

@<TRIPOS>ATOM
      1 C1         -0.0184    1.5028    0.0103 C.3       1 <0>        -0.1232
      2 C2          0.0021   -0.0041    0.0020 C.ar      1 <0>        -0.0760
      3 C3          0.0058   -0.6878   -1.2010 C.ar      1 <0>        -0.0857
      4 C4          0.0245   -2.0709   -1.2172 C.ar      1 <0>        -0.1152
      5 C5          0.0396   -2.7777   -0.0322 C.ar      1 <0>        -0.0728
      6 C6          0.0364   -2.0942    1.1842 C.ar      1 <0>        -0.0372
      7 C7          0.0228   -0.6986    1.1937 C.ar      1 <0>        -0.0864
      8 C8          0.0521   -2.8453    2.4579 C.2       1 <0>         0.1883
      9 N1          0.0753   -4.1548    2.6622 N.2       1 <0>        -0.5367
     10 C9          0.0869   -4.6552    3.8752 C.2       1 <0>         0.0025
     11 C10         0.0749   -3.8239    4.9511 C.2       1 <0>        -0.1802
     12 S1          0.0525   -2.2315    4.1373 S.3       1 <0>         0.0975
     13 C11         0.1129   -6.1486    4.0755 C.3       1 <0>         0.1156
     14 H1         -0.4704   -6.4068    4.9593 H         1 <0>         0.1504
     15 C12         1.5584   -6.6126    4.2650 C.3       1 <0>        -0.1799
     16 N2         -0.4636   -6.8107    2.8977 N.4       1 <0>        -0.5005
     17 C13        -0.5485   -8.2568    3.1415 C.3       1 <0>        -0.0521
     18 H2          1.0042    1.8801    0.0026 H         1 <0>         0.0792
     19 H3         -0.5455    1.8639   -0.8728 H         1 <0>         0.0756
     20 H4         -0.5286    1.8543    0.9071 H         1 <0>         0.0719
     21 H5         -0.0064   -0.1393   -2.1312 H         1 <0>         0.1354
     22 H6          0.0269   -2.5987   -2.1595 H         1 <0>         0.1363
     23 H7          0.0535   -3.8575   -0.0462 H         1 <0>         0.1306
     24 H8          0.0245   -0.1637    2.1319 H         1 <0>         0.1288
     25 H9          0.0815   -4.0598    6.0050 H         1 <0>         0.2095
     26 H10         1.5772   -7.6928    4.4098 H         1 <0>         0.0897
     27 H11         2.1417   -6.3544    3.3811 H         1 <0>         0.0838
     28 H12         1.9862   -6.1213    5.1389 H         1 <0>         0.1063
     29 H13        -1.3875   -6.4440    2.7243 H         1 <0>         0.4316
     30 H14        -0.9762   -8.7481    2.2675 H         1 <0>         0.1284
     31 H15         0.4496   -8.6529    3.3288 H         1 <0>         0.1255
     32 H16        -1.1818   -8.4425    4.0090 H         1 <0>         0.1242
     33 H17         0.1226   -6.6388    2.0947 H         1 <0>         0.4346
@<TRIPOS>BOND
     1    1    2 1
     2    1   18 1
     3    1   19 1
     4    1   20 1
     5    2    7 ar
     6    2    3 ar
     7    3    4 ar
     8    3   21 1
     9    4    5 ar
    10    4   22 1
    11    5    6 ar
    12    5   23 1
    13    6    7 ar
    14    6    8 1
    15    7   24 1
    16    8   12 1
    17    8    9 2
    18    9   10 1
    19   10   11 2
    20   10   13 1
    21   11   12 1
    22   11   25 1
    23   13   14 1
    24   13   15 1
    25   13   16 1
    26   15   26 1
    27   15   27 1
    28   15   28 1
    29   16   17 1
    30   16   29 1
    31   16   33 1
    32   17   30 1
    33   17   31 1
    34   17   32 1
@<TRIPOS>MOLECULE
ZINC70840846
   33    34     0     0     0
SMALL
USER_CHARGES

@<TRIPOS>ATOM
      1 C1         -0.0184    1.5028    0.0103 C.3       1 <0>        -0.1232
      2 C2          0.0021   -0.0041    0.0020 C.ar      1 <0>        -0.0760
      3 C3          0.0058   -0.6878   -1.2010 C.ar      1 <0>        -0.0856
      4 C4          0.0245   -2.0709   -1.2172 C.ar      1 <0>        -0.1152
      5 C5          0.0396   -2.7777   -0.0322 C.ar      1 <0>        -0.0728
      6 C6          0.0364   -2.0942    1.1842 C.ar      1 <0>        -0.0372
      7 C7          0.0228   -0.6986    1.1937 C.ar      1 <0>        -0.0864
      8 C8          0.0521   -2.8453    2.4579 C.2       1 <0>         0.1883
      9 N1          0.0753   -4.1548    2.6622 N.2       1 <0>        -0.5366
     10 C9          0.0869   -4.6552    3.8752 C.2       1 <0>         0.0025
     11 C10         0.0749   -3.8239    4.9511 C.2       1 <0>        -0.1802
     12 S1          0.0525   -2.2315    4.1373 S.3       1 <0>         0.0974
     13 C11         0.1129   -6.1486    4.0755 C.3       1 <0>         0.1156
     14 H1          0.7083   -6.3866    4.9569 H         1 <0>         0.1504
     15 C12        -1.3152   -6.6619    4.2708 C.3       1 <0>        -0.1798
     16 N2          0.7069   -6.7906    2.8953 N.4       1 <0>        -0.5005
     17 C13         0.8422   -8.2330    3.1387 C.3       1 <0>        -0.0521
     18 H2          1.0042    1.8801    0.0026 H         1 <0>         0.0791
     19 H3         -0.5455    1.8639   -0.8728 H         1 <0>         0.0757
     20 H4         -0.5286    1.8543    0.9071 H         1 <0>         0.0720
     21 H5         -0.0064   -0.1393   -2.1312 H         1 <0>         0.1354
     22 H6          0.0269   -2.5987   -2.1595 H         1 <0>         0.1363
     23 H7          0.0535   -3.8575   -0.0462 H         1 <0>         0.1306
     24 H8          0.0245   -0.1637    2.1319 H         1 <0>         0.1288
     25 H9          0.0815   -4.0598    6.0050 H         1 <0>         0.2095
     26 H10        -1.7559   -6.1854    5.1465 H         1 <0>         0.1063
     27 H11        -1.9106   -6.4238    3.3894 H         1 <0>         0.0839
     28 H12        -1.2964   -7.7420    4.4157 H         1 <0>         0.0897
     29 H13         0.1118   -6.6390    2.0947 H         1 <0>         0.4346
     30 H14         1.2830   -8.7094    2.2629 H         1 <0>         0.1284
     31 H15         1.4850   -8.3968    4.0035 H         1 <0>         0.1242
     32 H16        -0.1409   -8.6630    3.3300 H         1 <0>         0.1255
     33 H17         1.6169   -6.3926    2.7182 H         1 <0>         0.4315
@<TRIPOS>BOND
     1    1    2 1
     2    1   18 1
     3    1   19 1
     4    1   20 1
     5    2    7 ar
     6    2    3 ar
     7    3    4 ar
     8    3   21 1
     9    4    5 ar
    10    4   22 1
    11    5    6 ar
    12    5   23 1
    13    6    7 ar
    14    6    8 1
    15    7   24 1
    16    8   12 1
    17    8    9 2
    18    9   10 1
    19   10   11 2
    20   10   13 1
    21   11   12 1
    22   11   25 1
    23   13   14 1
    24   13   15 1
    25   13   16 1
    26   15   26 1
    27   15   27 1
    28   15   28 1
    29   16   17 1
    30   16   29 1
    31   16   33 1
    32   17   30 1
    33   17   31 1
    34   17   32 1
@<TRIPOS>MOLECULE
ZINC70839973
   31    32     0     0     0
SMALL
USER_CHARGES

@<TRIPOS>ATOM
      1 C1         -0.0187    1.5258    0.0104 C.3       1 <0>        -0.1769
      2 C2          0.0021   -0.0041    0.0020 C.3       1 <0>         0.1171
      3 H1          0.5123   -0.3556   -0.8948 H         1 <0>         0.1525
      4 C3         -1.4117   -0.5257    0.0127 C.2       1 <0>        -0.0042
      5 C4         -1.8244   -1.3930   -0.9487 C.2       1 <0>        -0.1821
      6 S1         -3.5210   -1.6576   -0.4485 S.3       1 <0>         0.0832
      7 C5         -3.4956   -0.5867    0.9831 C.2       1 <0>         0.1985
      8 N1         -2.2450   -0.1471    0.9539 N.2       1 <0>        -0.5221
      9 C6         -4.5761   -0.2787    1.9436 C.ar      1 <0>        -0.0869
     10 C7         -4.3421    0.6014    3.0016 C.ar      1 <0>        -0.0209
     11 C8         -5.3523    0.8864    3.8949 C.ar      1 <0>        -0.1556
     12 C9         -6.6016    0.2989    3.7438 C.ar      1 <0>         0.1694
     13 C10        -6.8382   -0.5775    2.6929 C.ar      1 <0>        -0.2077
     14 C11        -5.8349   -0.8628    1.7918 C.ar      1 <0>        -0.0377
     15 O1         -7.5946    0.5820    4.6266 O.3       1 <0>        -0.3071
     16 C12        -8.8548   -0.0569    4.4122 C.3       1 <0>         0.0204
     17 N2          0.7126   -0.4907    1.1921 N.4       1 <0>        -0.6339
     18 H2          1.0039    1.9031    0.0027 H         1 <0>         0.0858
     19 H3         -0.5459    1.8868   -0.8726 H         1 <0>         0.1034
     20 H4         -0.5289    1.8773    0.9072 H         1 <0>         0.0901
     21 H5         -1.2790   -1.8076   -1.7835 H         1 <0>         0.2089
     22 H6         -3.3706    1.0581    3.1202 H         1 <0>         0.1411
     23 H7         -5.1721    1.5672    4.7137 H         1 <0>         0.1451
     24 H8         -7.8109   -1.0327    2.5788 H         1 <0>         0.1436
     25 H9         -6.0211   -1.5408    0.9719 H         1 <0>         0.1319
     26 H10        -9.2435    0.2253    3.4338 H         1 <0>         0.0627
     27 H11        -8.7255   -1.1384    4.4537 H         1 <0>         0.0624
     28 H12        -9.5565    0.2551    5.1857 H         1 <0>         0.1097
     29 H13         0.2403   -0.1653    2.0223 H         1 <0>         0.4381
     30 H14         0.7262   -1.4996    1.1866 H         1 <0>         0.4345
     31 H15         1.6592   -0.1415    1.1850 H         1 <0>         0.4370
@<TRIPOS>BOND
     1    1    2 1
     2    1   18 1
     3    1   19 1
     4    1   20 1
     5    2    3 1
     6    2    4 1
     7    2   17 1
     8    4    8 1
     9    4    5 2
    10    5    6 1
    11    5   21 1
    12    6    7 1
    13    7    8 2
    14    7    9 1
    15    9   14 ar
    16    9   10 ar
    17   10   11 ar
    18   10   22 1
    19   11   12 ar
    20   11   23 1
    21   12   13 ar
    22   12   15 1
    23   13   14 ar
    24   13   24 1
    25   14   25 1
    26   15   16 1
    27   16   26 1
    28   16   27 1
    29   16   28 1
    30   17   29 1
    31   17   30 1
    32   17   31 1
@<TRIPOS>MOLECULE
ZINC41010004
   38    39     0     0     0
SMALL
USER_CHARGES

@<TRIPOS>ATOM
      1 C1         -0.0187    1.5258    0.0104 C.3       1 <0>        -0.1899
      2 C2          0.0021   -0.0041    0.0020 C.3       1 <0>        -0.0094
      3 N1         -1.3761   -0.5125    0.0124 N.4       1 <0>        -0.5085
      4 C3         -1.3562   -1.9814    0.0044 C.3       1 <0>         0.0781
      5 C4         -2.7700   -2.5030    0.0151 C.2       1 <0>        -0.0029
      6 C5         -3.3823   -2.8332   -1.1522 C.2       1 <0>        -0.1956
      7 S1         -4.9780   -3.3692   -0.5481 S.3       1 <0>         0.0674
      8 C6         -4.6563   -3.0956    1.1893 C.2       1 <0>         0.2125
      9 N2         -3.4101   -2.6442    1.1527 N.2       1 <0>        -0.5259
     10 C7         -5.5394   -3.3185    2.3532 C.ar      1 <0>        -0.1151
     11 C8         -5.0852   -3.0292    3.6415 C.ar      1 <0>        -0.0060
     12 C9         -5.9108   -3.2381    4.7246 C.ar      1 <0>        -0.2057
     13 C10        -7.1953   -3.7364    4.5357 C.ar      1 <0>         0.2540
     14 C11        -7.6504   -4.0259    3.2539 C.ar      1 <0>        -0.1990
     15 C12        -6.8316   -3.8133    2.1663 C.ar      1 <0>        -0.0267
     16 N3         -8.0289   -3.9468    5.6343 N.pl3     1 <0>        -0.6224
     17 C13        -7.5508   -3.6428    6.9853 C.3       1 <0>         0.0827
     18 C14        -9.3823   -4.4717    5.4370 C.3       1 <0>         0.0819
     19 H1          1.0039    1.9031    0.0027 H         1 <0>         0.1076
     20 H2         -0.5459    1.8868   -0.8726 H         1 <0>         0.0802
     21 H3         -0.5289    1.8773    0.9072 H         1 <0>         0.0805
     22 H4          0.5123   -0.3556   -0.8948 H         1 <0>         0.1319
     23 H5          0.5293   -0.3651    0.8851 H         1 <0>         0.1321
     24 H6         -1.8484   -0.1871    0.8426 H         1 <0>         0.4308
     25 H7         -0.8460   -2.3329   -0.8924 H         1 <0>         0.1438
     26 H8         -0.8290   -2.3425    0.8874 H         1 <0>         0.1435
     27 H9         -3.0088   -2.7852   -2.1644 H         1 <0>         0.2062
     28 H10        -4.0876   -2.6425    3.7888 H         1 <0>         0.1333
     29 H11        -5.5600   -3.0149    5.7213 H         1 <0>         0.1351
     30 H12        -8.6482   -4.4134    3.1104 H         1 <0>         0.1368
     31 H13        -7.1874   -4.0334    1.1706 H         1 <0>         0.1274
     32 H14        -7.7912   -2.6086    7.2317 H         1 <0>         0.0578
     33 H15        -8.0345   -4.3084    7.7002 H         1 <0>         0.0756
     34 H16        -6.4711   -3.7852    7.0293 H         1 <0>         0.0737
     35 H17        -9.3590   -5.5607    5.4768 H         1 <0>         0.0586
     36 H18       -10.0368   -4.0933    6.2222 H         1 <0>         0.0757
     37 H19        -9.7581   -4.1516    4.4652 H         1 <0>         0.0742
     38 H20        -1.8641   -0.1783   -0.8050 H         1 <0>         0.4258
@<TRIPOS>BOND
     1    1    2 1
     2    1   19 1
     3    1   20 1
     4    1   21 1
     5    2    3 1
     6    2   22 1
     7    2   23 1
     8    3    4 1
     9    3   24 1
    10    3   38 1
    11    4    5 1
    12    4   25 1
    13    4   26 1
    14    5    9 1
    15    5    6 2
    16    6    7 1
    17    6   27 1
    18    7    8 1
    19    8    9 2
    20    8   10 1
    21   10   15 ar
    22   10   11 ar
    23   11   12 ar
    24   11   28 1
    25   12   13 ar
    26   12   29 1
    27   13   14 ar
    28   13   16 1
    29   14   15 ar
    30   14   30 1
    31   15   31 1
    32   16   17 1
    33   16   18 1
    34   17   32 1
    35   17   33 1
    36   17   34 1
    37   18   35 1
    38   18   36 1
    39   18   37 1
@<TRIPOS>MOLECULE
ZINC80802219
   36    38     0     0     0
SMALL
USER_CHARGES

@<TRIPOS>ATOM
      1 C1         -0.0187    1.5258    0.0104 C.3       1 <0>        -0.1799
      2 C2          0.0021   -0.0041    0.0020 C.3       1 <0>         0.1155
      3 H1          0.5293   -0.3651    0.8851 H         1 <0>         0.1504
      4 C3         -1.4117   -0.5257    0.0127 C.2       1 <0>         0.0032
      5 C4         -2.0767   -0.6667    1.1904 C.2       1 <0>        -0.1800
      6 S1         -3.6459   -1.2984    0.6096 S.3       1 <0>         0.0950
      7 C5         -3.2460   -1.3057   -1.1331 C.2       1 <0>         0.1879
      8 N1         -2.0050   -0.8395   -1.1148 N.2       1 <0>        -0.5359
      9 C6         -4.0772   -1.7159   -2.2845 C.ar      1 <0>        -0.0381
     10 C7         -3.5501   -1.6436   -3.5863 C.ar      1 <0>        -0.0825
     11 C8         -4.2934   -2.0146   -4.6598 C.ar      1 <0>        -0.0963
     12 C9         -5.6092   -2.4786   -4.4783 C.ar      1 <0>        -0.0313
     13 C10        -6.3979   -2.8682   -5.5737 C.ar      1 <0>        -0.1125
     14 C11        -7.6675   -3.3135   -5.3668 C.ar      1 <0>        -0.0948
     15 C12        -8.2012   -3.3896   -4.0816 C.ar      1 <0>        -0.1079
     16 C13        -7.4678   -3.0211   -2.9961 C.ar      1 <0>        -0.1002
     17 C14        -6.1517   -2.5564   -3.1705 C.ar      1 <0>        -0.0570
     18 C15        -5.3664   -2.1736   -2.0726 C.ar      1 <0>        -0.0518
     19 N2          0.6897   -0.4778   -1.2066 N.4       1 <0>        -0.5005
     20 C16         2.1002   -0.0703   -1.1590 C.3       1 <0>        -0.0521
     21 H2          1.0039    1.9031    0.0027 H         1 <0>         0.0896
     22 H3         -0.5459    1.8868   -0.8726 H         1 <0>         0.0840
     23 H4         -0.5289    1.8773    0.9072 H         1 <0>         0.1062
     24 H5         -1.7482   -0.4560    2.1974 H         1 <0>         0.2094
     25 H6         -2.5410   -1.2881   -3.7339 H         1 <0>         0.1305
     26 H7         -3.8749   -1.9531   -5.6535 H         1 <0>         0.1384
     27 H8         -5.9986   -2.8144   -6.5758 H         1 <0>         0.1346
     28 H9         -8.2706   -3.6121   -6.2115 H         1 <0>         0.1319
     29 H10        -9.2117   -3.7457   -3.9451 H         1 <0>         0.1322
     30 H11        -7.8941   -3.0848   -2.0059 H         1 <0>         0.1337
     31 H12        -5.7659   -2.2314   -1.0709 H         1 <0>         0.1339
     32 H13         0.6317   -1.4840   -1.2540 H         1 <0>         0.4316
     33 H14         2.1628    1.0167   -1.1079 H         1 <0>         0.1255
     34 H15         2.5740   -0.5034   -0.2781 H         1 <0>         0.1242
     35 H16         2.6104   -0.4218   -2.0558 H         1 <0>         0.1284
     36 H17         0.2511   -0.0769   -2.0221 H         1 <0>         0.4347
@<TRIPOS>BOND
     1    1    2 1
     2    1   21 1
     3    1   22 1
     4    1   23 1
     5    2    3 1
     6    2    4 1
     7    2   19 1
     8    4    8 1
     9    4    5 2
    10    5    6 1
    11    5   24 1
    12    6    7 1
    13    7    8 2
    14    7    9 1
    15    9   18 ar
    16    9   10 ar
    17   10   11 ar
    18   10   25 1
    19   11   12 ar
    20   11   26 1
    21   12   17 ar
    22   12   13 ar
    23   13   14 ar
    24   13   27 1
    25   14   15 ar
    26   14   28 1
    27   15   16 ar
    28   15   29 1
    29   16   17 ar
    30   16   30 1
    31   17   18 ar
    32   18   31 1
    33   19   20 1
    34   19   32 1
    35   19   36 1
    36   20   33 1
    37   20   34 1
    38   20   35 1
@<TRIPOS>MOLECULE
ZINC11851562
   34    36     0     0     0
SMALL
USER_CHARGES
[3-[4-(3,4-dichlorophenyl)thiazol-2-yl]phenyl]methanamine
@<TRIPOS>ATOM
      1 C1         -1.0051    3.2359    2.9530 C.ar      1 <0>        -0.1095
      2 C2         -0.3585    2.7799    1.8178 C.ar      1 <0>        -0.0762
      3 C3         -0.7181    1.5718    1.2479 C.ar      1 <0>        -0.1676
      4 C4         -1.7174    0.8081    1.8155 C.ar      1 <0>        -0.0726
      5 C5         -2.3695    1.2596    2.9634 C.ar      1 <0>         0.0011
      6 C6         -2.0058    2.4820    3.5302 C.ar      1 <0>        -0.0389
      7 C7         -3.4416    0.4465    3.5767 C.2       1 <0>         0.1299
      8 N1         -4.1675    0.6941    4.6552 N.2       1 <0>        -0.4739
      9 C8         -5.0963   -0.1489    5.0652 C.2       1 <0>         0.1004
     10 C9         -5.3073   -1.3094    4.3666 C.2       1 <0>        -0.1684
     11 S1         -4.0961   -1.1355    3.0626 S.3       1 <0>         0.0404
     12 C10        -5.9011    0.1539    6.2742 C.ar      1 <0>        -0.0183
     13 C11        -5.6831    1.3352    6.9813 C.ar      1 <0>        -0.0691
     14 C12        -6.4341    1.6130    8.1050 C.ar      1 <0>        -0.0981
     15 C13        -7.4030    0.7208    8.5312 C.ar      1 <0>        -0.0225
     16 C14        -7.6239   -0.4547    7.8323 C.ar      1 <0>        -0.0306
     17 C15        -6.8811   -0.7389    6.7030 C.ar      1 <0>        -0.0844
     18 Cl1        -8.8406   -1.5689    8.3727 Cl        1 <0>        -0.0355
     19 Cl2        -8.3437    1.0759    9.9464 Cl        1 <0>        -0.0358
     20 C16        -0.0127    1.0858    0.0080 C.3       1 <0>         0.0525
     21 H1         -0.7227    4.1821    3.3906 H         1 <0>         0.1463
     22 H2          0.4274    3.3718    1.3722 H         1 <0>         0.1394
     23 H3         -1.9940   -0.1371    1.3723 H         1 <0>         0.1363
     24 H4         -2.5069    2.8372    4.4185 H         1 <0>         0.1483
     25 H5         -6.0103   -2.1079    4.5526 H         1 <0>         0.2094
     26 H6         -4.9276    2.0322    6.6500 H         1 <0>         0.1471
     27 H7         -6.2656    2.5282    8.6532 H         1 <0>         0.1494
     28 H8         -7.0564   -1.6535    6.1561 H         1 <0>         0.1447
     29 H9          0.0021   -0.0041    0.0020 H         1 <0>         0.1399
     30 H10         1.0099    1.4631    0.0003 H         1 <0>         0.1453
     31 H11        -0.8068    2.5779   -1.1674 H         1 <0>         0.4375
     32 H12        -0.2694    1.2597   -2.0273 H         1 <0>         0.4412
     33 N2         -0.7456    1.5611   -1.1787 N.4       1 <0>        -0.6467
     34 H13        -1.6942    1.1683   -1.1693 H         1 <0>         0.4389
@<TRIPOS>BOND
     1    1    6 ar
     2    1    2 ar
     3    1   21 1
     4    2    3 ar
     5    2   22 1
     6    3    4 ar
     7    3   20 1
     8    4    5 ar
     9    4   23 1
    10    5    6 ar
    11    5    7 1
    12    6   24 1
    13    7   11 1
    14    7    8 2
    15    8    9 1
    16    9   10 2
    17    9   12 1
    18   10   11 1
    19   10   25 1
    20   12   17 ar
    21   12   13 ar
    22   13   14 ar
    23   13   26 1
    24   14   15 ar
    25   14   27 1
    26   15   16 ar
    27   15   19 1
    28   16   17 ar
    29   16   18 1
    30   17   28 1
    31   20   29 1
    32   20   30 1
    33   20   33 1
    34   31   33 1
    35   32   33 1
    36   33   34 1
@<TRIPOS>MOLECULE
ZINC80802220
   36    38     0     0     0
SMALL
USER_CHARGES

@<TRIPOS>ATOM
      1 C1         -0.0187    1.5258    0.0104 C.3       1 <0>        -0.1798
      2 C2          0.0021   -0.0041    0.0020 C.3       1 <0>         0.1155
      3 H1          0.5293   -0.3651    0.8851 H         1 <0>         0.1504
      4 C3          0.7074   -0.4901   -1.2379 C.2       1 <0>         0.0034
      5 C4          2.0621   -0.6067   -1.2492 C.2       1 <0>        -0.1802
      6 S1          2.3281   -1.2027   -2.9143 S.3       1 <0>         0.0950
      7 C5          0.6110   -1.2312   -3.4121 C.2       1 <0>         0.1880
      8 N1          0.0150   -0.8064   -2.3065 N.2       1 <0>        -0.5360
      9 C6          0.0158   -1.6270   -4.7059 C.ar      1 <0>        -0.0381
     10 C7         -1.3782   -1.5646   -4.8808 C.ar      1 <0>        -0.0825
     11 C8         -1.9485   -1.9226   -6.0594 C.ar      1 <0>        -0.0963
     12 C9         -1.1434   -2.3632   -7.1257 C.ar      1 <0>        -0.0313
     13 C10        -1.7107   -2.7389   -8.3549 C.ar      1 <0>        -0.1125
     14 C11        -0.9060   -3.1608   -9.3687 C.ar      1 <0>        -0.0948
     15 C12         0.4768   -3.2272   -9.2076 C.ar      1 <0>        -0.1079
     16 C13         1.0624   -2.8716   -8.0318 C.ar      1 <0>        -0.1002
     17 C14         0.2634   -2.4301   -6.9618 C.ar      1 <0>        -0.0570
     18 C15         0.8354   -2.0509   -5.7380 C.ar      1 <0>        -0.0517
     19 N2         -1.3761   -0.5125    0.0124 N.4       1 <0>        -0.5006
     20 C16        -2.0260   -0.1396    1.2760 C.3       1 <0>        -0.0520
     21 H2          1.0039    1.9031    0.0027 H         1 <0>         0.1063
     22 H3         -0.5459    1.8868   -0.8726 H         1 <0>         0.0840
     23 H4         -0.5289    1.8773    0.9072 H         1 <0>         0.0896
     24 H5          2.7789   -0.3973   -0.4690 H         1 <0>         0.2094
     25 H6         -2.0030   -1.2277   -4.0668 H         1 <0>         0.1306
     26 H7         -3.0206   -1.8696   -6.1784 H         1 <0>         0.1384
     27 H8         -2.7806   -2.6936   -8.4949 H         1 <0>         0.1346
     28 H9         -1.3459   -3.4488  -10.3120 H         1 <0>         0.1319
     29 H10         1.0924   -3.5662  -10.0277 H         1 <0>         0.1322
     30 H11         2.1352   -2.9283   -7.9208 H         1 <0>         0.1337
     31 H12         1.9058   -2.0935   -5.6008 H         1 <0>         0.1339
     32 H13        -1.8879   -0.1129   -0.7598 H         1 <0>         0.4347
     33 H14        -1.4732   -0.5714    2.1102 H         1 <0>         0.1242
     34 H15        -2.0386    0.9461    1.3715 H         1 <0>         0.1255
     35 H16        -3.0486   -0.5169    1.2837 H         1 <0>         0.1284
     36 H17        -1.3644   -1.5176   -0.0760 H         1 <0>         0.4316
@<TRIPOS>BOND
     1    1    2 1
     2    1   21 1
     3    1   22 1
     4    1   23 1
     5    2    3 1
     6    2    4 1
     7    2   19 1
     8    4    8 1
     9    4    5 2
    10    5    6 1
    11    5   24 1
    12    6    7 1
    13    7    8 2
    14    7    9 1
    15    9   18 ar
    16    9   10 ar
    17   10   11 ar
    18   10   25 1
    19   11   12 ar
    20   11   26 1
    21   12   17 ar
    22   12   13 ar
    23   13   14 ar
    24   13   27 1
    25   14   15 ar
    26   14   28 1
    27   15   16 ar
    28   15   29 1
    29   16   17 ar
    30   16   30 1
    31   17   18 ar
    32   18   31 1
    33   19   20 1
    34   19   32 1
    35   19   36 1
    36   20   33 1
    37   20   34 1
    38   20   35 1
@<TRIPOS>MOLECULE
ZINC14193512
   37    39     0     0     0
SMALL
USER_CHARGES
1-[(2-phenylthiazol-4-yl)methyl]piperidine
@<TRIPOS>ATOM
      1 C1          4.1041   -3.7526   -0.0560 C.ar      1 <0>        -0.0829
      2 C2          2.7230   -3.8329   -0.0437 C.ar      1 <0>        -0.1149
      3 C3          1.9622   -2.6820   -0.0307 C.ar      1 <0>        -0.0840
      4 C4          2.5887   -1.4351   -0.0300 C.ar      1 <0>        -0.0439
      5 C5          3.9821   -1.3610   -0.0482 C.ar      1 <0>        -0.0635
      6 C6          4.7314   -2.5194   -0.0553 C.ar      1 <0>        -0.1204
      7 C7          1.7795   -0.1975   -0.0160 C.2       1 <0>         0.1877
      8 N1          2.1764    1.0672   -0.0130 N.2       1 <0>        -0.5099
      9 C8          1.3105    2.0531    0.0006 C.2       1 <0>        -0.0010
     10 C9         -0.0222    1.7842    0.0119 C.2       1 <0>        -0.1897
     11 S1          0.0021   -0.0041    0.0020 S.3       1 <0>         0.0892
     12 C10         1.7924    3.4810    0.0031 C.3       1 <0>         0.0798
     13 C11         0.8468    3.9387    2.1842 C.3       1 <0>        -0.0068
     14 C12         1.1975    4.2354    3.6440 C.3       1 <0>        -0.1458
     15 C13         1.9256    5.5799    3.7259 C.3       1 <0>        -0.1382
     16 C14         3.1763    5.5286    2.8441 C.3       1 <0>        -0.1473
     17 C15         2.7683    5.1945    1.4074 C.3       1 <0>        -0.0010
     18 H1          4.6952   -4.6564   -0.0658 H         1 <0>         0.1358
     19 H2          2.2394   -4.7985   -0.0447 H         1 <0>         0.1381
     20 H3          0.8842   -2.7460   -0.0208 H         1 <0>         0.1284
     21 H4          4.4729   -0.3990   -0.0525 H         1 <0>         0.1343
     22 H5          5.8099   -2.4635   -0.0649 H         1 <0>         0.1365
     23 H6         -0.8626    2.4625    0.0198 H         1 <0>         0.2088
     24 H7          2.7006    3.5590   -0.5946 H         1 <0>         0.1421
     25 H8          1.0221    4.1252   -0.4207 H         1 <0>         0.1439
     26 H9          0.1893    4.7199    1.8026 H         1 <0>         0.1316
     27 H10         0.3410    2.9753    2.1207 H         1 <0>         0.1227
     28 H11         1.8439    3.4473    4.0303 H         1 <0>         0.0854
     29 H12         0.2833    4.2799    4.2360 H         1 <0>         0.1113
     30 H13         2.2156    5.7748    4.7584 H         1 <0>         0.0939
     31 H14         1.2660    6.3742    3.3766 H         1 <0>         0.0823
     32 H15         3.8539    4.7609    3.2179 H         1 <0>         0.0868
     33 H16         3.6760    6.4971    2.8646 H         1 <0>         0.1129
     34 H17         3.6581    5.1431    0.7798 H         1 <0>         0.1293
     35 H18         2.1018    5.9697    1.0296 H         1 <0>         0.1312
     36 N2          2.0946    3.8785    1.3937 N.4       1 <0>        -0.3921
     37 H19         2.7202    3.1798    1.8116 H         1 <0>         0.4294
@<TRIPOS>BOND
     1    1    6 ar
     2    1    2 ar
     3    1   18 1
     4    2    3 ar
     5    2   19 1
     6    3    4 ar
     7    3   20 1
     8    4    5 ar
     9    4    7 1
    10    5    6 ar
    11    5   21 1
    12    6   22 1
    13    7   11 1
    14    7    8 2
    15    8    9 1
    16    9   10 2
    17    9   12 1
    18   10   11 1
    19   10   23 1
    20   12   24 1
    21   12   25 1
    22   12   36 1
    23   13   14 1
    24   13   26 1
    25   13   27 1
    26   13   36 1
    27   14   15 1
    28   14   28 1
    29   14   29 1
    30   15   16 1
    31   15   30 1
    32   15   31 1
    33   16   17 1
    34   16   32 1
    35   16   33 1
    36   17   34 1
    37   17   35 1
    38   17   36 1
    39   36   37 1
@<TRIPOS>MOLECULE
ZINC23424867
   39    41     0     0     0
SMALL
USER_CHARGES
2-phenyl-N-[(2-phenylthiazol-4-yl)methyl]ethanamine
@<TRIPOS>ATOM
      1 C1         -2.0785    2.5007   -3.4529 C.ar      1 <0>        -0.1242
      2 C2         -1.0663    3.2585   -2.8942 C.ar      1 <0>        -0.1184
      3 C3         -0.3980    2.8008   -1.7740 C.ar      1 <0>        -0.1159
      4 C4         -0.7416    1.5850   -1.2129 C.ar      1 <0>        -0.0820
      5 C5         -1.7499    0.8246   -1.7750 C.ar      1 <0>        -0.1176
      6 C6         -2.4217    1.2848   -2.8921 C.ar      1 <0>        -0.1185
      7 C7         -0.0127    1.0858    0.0080 C.3       1 <0>        -0.0776
      8 C8         -0.7288    1.5792    1.2668 C.3       1 <0>         0.0564
      9 N1         -0.0184    1.0926    2.4569 N.3       1 <0>        -0.6681
     10 C9         -0.6791    1.5479    3.6874 C.3       1 <0>         0.1199
     11 C10         0.0763    1.0304    4.8843 C.2       1 <0>         0.0605
     12 C11         1.0179    1.8071    5.4832 C.2       1 <0>        -0.1779
     13 S1          1.5580    0.7182    6.7951 S.3       1 <0>         0.0121
     14 C12         0.4802   -0.6521    6.3980 C.2       1 <0>         0.1565
     15 N2         -0.1697   -0.1726    5.3469 N.2       1 <0>        -0.4939
     16 C13         0.3497   -1.9666    7.0627 C.ar      1 <0>        -0.0183
     17 C14        -0.5694   -2.9034    6.5883 C.ar      1 <0>        -0.0705
     18 C15        -0.6825   -4.1300    7.2097 C.ar      1 <0>        -0.1206
     19 C16         0.1046   -4.4278    8.3078 C.ar      1 <0>        -0.0995
     20 C17         1.0140   -3.5014    8.7862 C.ar      1 <0>        -0.1177
     21 C18         1.1410   -2.2733    8.1704 C.ar      1 <0>        -0.0920
     22 H1         -2.6009    2.8585   -4.3278 H         1 <0>         0.1212
     23 H2         -0.7979    4.2083   -3.3326 H         1 <0>         0.1220
     24 H3          0.3927    3.3928   -1.3375 H         1 <0>         0.1219
     25 H4         -2.0153   -0.1273   -1.3392 H         1 <0>         0.1201
     26 H5         -3.2122    0.6925   -3.3288 H         1 <0>         0.1216
     27 H6          0.0022   -0.0141    0.0019 H         1 <0>         0.0725
     28 H7          1.0193    1.4665    0.0002 H         1 <0>         0.0821
     29 H8         -0.7437    2.6791    1.2729 H         1 <0>         0.0750
     30 H9         -1.7608    1.1985    1.2746 H         1 <0>         0.0344
     31 H10        -0.0035   -0.0073    2.4508 H         1 <0>         0.3452
     32 H11        -0.6936    2.6476    3.7104 H         1 <0>         0.0881
     33 H12        -1.7107    1.1670    3.7122 H         1 <0>         0.0497
     34 H13         1.3474    2.8055    5.2360 H         1 <0>         0.1995
     35 H14        -1.1878   -2.6703    5.7341 H         1 <0>         0.1348
     36 H15        -1.3900   -4.8578    6.8407 H         1 <0>         0.1313
     37 H16         0.0090   -5.3877    8.7935 H         1 <0>         0.1291
     38 H17         1.6256   -3.7399    9.6439 H         1 <0>         0.1319
     39 H18         1.8515   -1.5511    8.5446 H         1 <0>         0.1269
@<TRIPOS>BOND
     1    1    6 ar
     2    1    2 ar
     3    1   22 1
     4    2    3 ar
     5    2   23 1
     6    3    4 ar
     7    3   24 1
     8    4    5 ar
     9    4    7 1
    10    5    6 ar
    11    5   25 1
    12    6   26 1
    13    7    8 1
    14    7   27 1
    15    7   28 1
    16    8    9 1
    17    8   29 1
    18    8   30 1
    19    9   10 1
    20    9   31 1
    21   10   11 1
    22   10   32 1
    23   10   33 1
    24   11   15 1
    25   11   12 2
    26   12   13 1
    27   12   34 1
    28   13   14 1
    29   14   15 2
    30   14   16 1
    31   16   21 ar
    32   16   17 ar
    33   17   18 ar
    34   17   35 1
    35   18   19 ar
    36   18   36 1
    37   19   20 ar
    38   19   37 1
    39   20   21 ar
    40   20   38 1
    41   21   39 1
@<TRIPOS>MOLECULE
ZINC80802994
   36    37     0     0     0
SMALL
USER_CHARGES

@<TRIPOS>ATOM
      1 C1         -0.0187    1.5258    0.0104 C.3       1 <0>        -0.1562
      2 C2          0.0021   -0.0041    0.0020 C.3       1 <0>        -0.1497
      3 C3          0.7182   -0.4975   -1.2568 C.3       1 <0>        -0.0159
      4 N1          0.7381   -1.9663   -1.2649 N.4       1 <0>        -0.5005
      5 C4          1.4257   -2.4401   -2.4735 C.3       1 <0>         0.1174
      6 H1          2.4178   -1.9917   -2.5265 H         1 <0>         0.1510
      7 C5          0.6183   -2.0394   -3.7098 C.3       1 <0>        -0.1799
      8 C6          1.5548   -3.9407   -2.4224 C.2       1 <0>        -0.0003
      9 C7          2.5511   -4.5619   -3.1073 C.2       1 <0>        -0.1824
     10 S1          2.2219   -6.2700   -2.6918 S.3       1 <0>         0.1415
     11 C8          0.7970   -5.9710   -1.6540 C.2       1 <0>         0.1631
     12 N2          0.7086   -4.6494   -1.7121 N.2       1 <0>        -0.5251
     13 C9         -0.0513   -6.9368   -0.9239 C.ar      1 <0>        -0.0549
     14 C10        -1.1331   -6.4865   -0.1658 C.ar      1 <0>        -0.0389
     15 C11        -1.9213   -7.3921    0.5134 C.ar      1 <0>        -0.1133
     16 C12        -1.6427   -8.7460    0.4456 C.ar      1 <0>        -0.0510
     17 C13        -0.5723   -9.2019   -0.3035 C.ar      1 <0>        -0.0725
     18 C14         0.2229   -8.3049   -0.9944 C.ar      1 <0>         0.1364
     19 F1          1.2647   -8.7502   -1.7303 F         1 <0>        -0.1109
     20 Cl1        -0.2308  -10.9021   -0.3818 Cl        1 <0>        -0.0214
     21 H2          1.0039    1.9031    0.0027 H         1 <0>         0.0671
     22 H3         -0.5459    1.8868   -0.8726 H         1 <0>         0.0672
     23 H4         -0.5289    1.8773    0.9072 H         1 <0>         0.0777
     24 H5          0.5293   -0.3651    0.8851 H         1 <0>         0.0860
     25 H6         -1.0205   -0.3814    0.0098 H         1 <0>         0.0865
     26 H7          0.1910   -0.1364   -2.1398 H         1 <0>         0.1336
     27 H8          1.7408   -0.1202   -1.2645 H         1 <0>         0.1319
     28 H9          1.2261   -2.3006   -0.4474 H         1 <0>         0.4293
     29 H10         1.1285   -2.3909   -4.6066 H         1 <0>         0.1069
     30 H11        -0.3738   -2.4878   -3.6568 H         1 <0>         0.0842
     31 H12         0.5249   -0.9541   -3.7467 H         1 <0>         0.0895
     32 H13         3.3264   -4.1408   -3.7301 H         1 <0>         0.2111
     33 H14        -1.3527   -5.4305   -0.1107 H         1 <0>         0.1483
     34 H15        -2.7582   -7.0435    1.1003 H         1 <0>         0.1543
     35 H16        -2.2634   -9.4499    0.9800 H         1 <0>         0.1572
     36 H17        -0.2085   -2.3156   -1.2577 H         1 <0>         0.4323
@<TRIPOS>BOND
     1    1    2 1
     2    1   21 1
     3    1   22 1
     4    1   23 1
     5    2    3 1
     6    2   24 1
     7    2   25 1
     8    3    4 1
     9    3   26 1
    10    3   27 1
    11    4    5 1
    12    4   28 1
    13    4   36 1
    14    5    6 1
    15    5    7 1
    16    5    8 1
    17    7   29 1
    18    7   30 1
    19    7   31 1
    20    8   12 1
    21    8    9 2
    22    9   10 1
    23    9   32 1
    24   10   11 1
    25   11   12 2
    26   11   13 1
    27   13   18 ar
    28   13   14 ar
    29   14   15 ar
    30   14   33 1
    31   15   16 ar
    32   15   34 1
    33   16   17 ar
    34   16   35 1
    35   17   18 ar
    36   17   20 1
    37   18   19 1
@<TRIPOS>MOLECULE
ZINC56296088
   35    36     0     0     0
SMALL
USER_CHARGES

@<TRIPOS>ATOM
      1 C1         -0.0187    1.5258    0.0104 C.3       1 <0>        -0.1525
      2 C2          0.0021   -0.0041    0.0020 C.3       1 <0>         0.0571
      3 O1          0.6709   -0.4649   -1.1737 O.3       1 <0>        -0.3871
      4 C3          0.7457   -1.8880   -1.2798 C.3       1 <0>         0.0492
      5 C4          1.4779   -2.2655   -2.5691 C.3       1 <0>         0.1210
      6 N1          2.8679   -1.8090   -2.4929 N.am      1 <0>        -0.7071
      7 C5          3.7081   -2.0331   -3.5226 C.2       1 <0>         0.5906
      8 O2          3.3124   -2.6143   -4.5150 O.2       1 <0>        -0.5366
      9 C6          5.1058   -1.5740   -3.4461 C.2       1 <0>        -0.0126
     10 C7          5.9664   -1.7921   -4.4892 C.2       1 <0>        -0.1944
     11 S1          7.3963   -1.1014   -3.9314 S.3       1 <0>         0.1832
     12 C8          6.8078   -0.5488   -2.3403 C.2       1 <0>         0.1033
     13 N2          5.5466   -0.9391   -2.3689 N.2       1 <0>        -0.4524
     14 C9          7.5398    0.1647   -1.2711 C.ar      1 <0>         0.0009
     15 C10         6.8896    0.5056   -0.0844 C.ar      1 <0>        -0.0686
     16 C11         7.5772    1.1710    0.9095 C.ar      1 <0>        -0.1037
     17 C12         8.9090    1.5006    0.7321 C.ar      1 <0>        -0.0917
     18 C13         9.5604    1.1655   -0.4427 C.ar      1 <0>        -0.0326
     19 C14         8.8843    0.4942   -1.4426 C.ar      1 <0>        -0.0884
     20 Cl1        11.2318    1.5832   -0.6563 Cl        1 <0>        -0.0569
     21 H1          1.0039    1.9031    0.0027 H         1 <0>         0.0632
     22 H2         -0.5459    1.8868   -0.8726 H         1 <0>         0.0631
     23 H3         -0.5289    1.8773    0.9072 H         1 <0>         0.0720
     24 H4          0.5293   -0.3651    0.8851 H         1 <0>         0.0493
     25 H5         -1.0205   -0.3814    0.0098 H         1 <0>         0.0496
     26 H6          1.2883   -2.2882   -0.4233 H         1 <0>         0.0578
     27 H7         -0.2614   -2.3044   -1.2986 H         1 <0>         0.0693
     28 H8          1.4574   -3.3481   -2.6949 H         1 <0>         0.0863
     29 H9          0.9858   -1.7917   -3.4184 H         1 <0>         0.0797
     30 H10         3.1834   -1.3454   -1.7015 H         1 <0>         0.4128
     31 H11         5.7756   -2.2834   -5.4318 H         1 <0>         0.2120
     32 H12         5.8498    0.2494    0.0557 H         1 <0>         0.1422
     33 H13         7.0745    1.4355    1.8280 H         1 <0>         0.1426
     34 H14         9.4427    2.0218    1.5130 H         1 <0>         0.1408
     35 H15         9.3942    0.2287   -2.3569 H         1 <0>         0.1385
@<TRIPOS>BOND
     1    1    2 1
     2    1   21 1
     3    1   22 1
     4    1   23 1
     5    2    3 1
     6    2   24 1
     7    2   25 1
     8    3    4 1
     9    4    5 1
    10    4   26 1
    11    4   27 1
    12    5    6 1
    13    5   28 1
    14    5   29 1
    15    6    7 am
    16    6   30 1
    17    7    8 2
    18    7    9 1
    19    9   13 1
    20    9   10 2
    21   10   11 1
    22   10   31 1
    23   11   12 1
    24   12   13 2
    25   12   14 1
    26   14   19 ar
    27   14   15 ar
    28   15   16 ar
    29   15   32 1
    30   16   17 ar
    31   16   33 1
    32   17   18 ar
    33   17   34 1
    34   18   19 ar
    35   18   20 1
    36   19   35 1
@<TRIPOS>MOLECULE
ZINC83862425
   33    34     0     0     0
SMALL
USER_CHARGES

@<TRIPOS>ATOM
      1 C1         -0.0187    1.5258    0.0104 C.3       1 <0>        -0.1883
      2 C2          0.0021   -0.0041    0.0020 C.3       1 <0>        -0.0151
      3 N1          0.7126   -0.4907    1.1921 N.4       1 <0>        -0.5012
      4 C3          0.7325   -1.9595    1.1840 C.3       1 <0>         0.1169
      5 H1         -0.2871   -2.3363    1.1022 H         1 <0>         0.1512
      6 C4          1.5554   -2.4519   -0.0082 C.3       1 <0>        -0.1799
      7 C5          1.3520   -2.4606    2.4632 C.2       1 <0>        -0.0001
      8 C6          1.0476   -3.7016    2.9265 C.2       1 <0>        -0.1823
      9 S1          2.0367   -3.7498    4.4157 S.3       1 <0>         0.1434
     10 C7          2.7459   -2.1160    4.2591 C.2       1 <0>         0.1621
     11 N2          2.1906   -1.7013    3.1289 N.2       1 <0>        -0.5255
     12 C8          3.6990   -1.4177    5.1476 C.ar      1 <0>        -0.0544
     13 C9          4.1264   -0.1255    4.8396 C.ar      1 <0>        -0.0353
     14 C10         5.0167    0.5211    5.6734 C.ar      1 <0>        -0.0498
     15 C11         5.4863   -0.1096    6.8135 C.ar      1 <0>        -0.0494
     16 C12         5.0675   -1.3898    7.1254 C.ar      1 <0>        -0.1307
     17 C13         4.1716   -2.0466    6.3025 C.ar      1 <0>         0.1344
     18 F1          3.7586   -3.2953    6.6110 F         1 <0>        -0.1174
     19 Cl1         5.5492    2.1286    5.2915 Cl        1 <0>        -0.0380
     20 H2          1.0039    1.9031    0.0027 H         1 <0>         0.0811
     21 H3         -0.5459    1.8868   -0.8726 H         1 <0>         0.1076
     22 H4         -0.5289    1.8773    0.9072 H         1 <0>         0.0804
     23 H5         -1.0205   -0.3814    0.0098 H         1 <0>         0.1314
     24 H6          0.5123   -0.3556   -0.8948 H         1 <0>         0.1329
     25 H7          1.6592   -0.1414    1.1850 H         1 <0>         0.4323
     26 H8          1.5702   -3.5418   -0.0141 H         1 <0>         0.1067
     27 H9          1.1073   -2.0895   -0.9334 H         1 <0>         0.0897
     28 H10         2.5749   -2.0751    0.0737 H         1 <0>         0.0841
     29 H11         0.3904   -4.4510    2.5106 H         1 <0>         0.2113
     30 H12         3.7618    0.3676    3.9507 H         1 <0>         0.1521
     31 H13         6.1832    0.4008    7.4618 H         1 <0>         0.1581
     32 H14         5.4376   -1.8760    8.0159 H         1 <0>         0.1625
     33 H15         0.2403   -0.1653    2.0223 H         1 <0>         0.4292
@<TRIPOS>BOND
     1    1    2 1
     2    1   20 1
     3    1   21 1
     4    1   22 1
     5    2    3 1
     6    2   23 1
     7    2   24 1
     8    3    4 1
     9    3   25 1
    10    3   33 1
    11    4    5 1
    12    4    6 1
    13    4    7 1
    14    6   26 1
    15    6   27 1
    16    6   28 1
    17    7   11 1
    18    7    8 2
    19    8    9 1
    20    8   29 1
    21    9   10 1
    22   10   11 2
    23   10   12 1
    24   12   17 ar
    25   12   13 ar
    26   13   14 ar
    27   13   30 1
    28   14   15 ar
    29   14   19 1
    30   15   16 ar
    31   15   31 1
    32   16   17 ar
    33   16   32 1
    34   17   18 1
@<TRIPOS>MOLECULE
ZINC90249920
   31    33     0     0     0
SMALL
USER_CHARGES

@<TRIPOS>ATOM
      1 C1         -0.0167    1.3803    0.0096 C.ar      1 <0>        -0.0760
      2 C2          1.1682    2.0941    0.0022 C.ar      1 <0>        -0.0667
      3 C3          2.3780    1.4293   -0.0129 C.ar      1 <0>        -0.0777
      4 C4          2.4041    0.0330   -0.0206 C.ar      1 <0>         0.0124
      5 C5          1.2057   -0.6811   -0.0130 C.ar      1 <0>        -0.0564
      6 C6          0.0021   -0.0041    0.0020 C.ar      1 <0>        -0.0216
      7 Cl1        -1.4904   -0.8907    0.0114 Cl        1 <0>        -0.0346
      8 C7          3.6963   -0.6853   -0.0373 C.2       1 <0>         0.1429
      9 N1          3.9338   -1.9894   -0.0520 N.2       1 <0>        -0.4897
     10 C8          5.1593   -2.4587   -0.0656 C.2       1 <0>        -0.0195
     11 C9          6.2135   -1.6002   -0.0648 C.2       1 <0>        -0.2043
     12 S1          5.3594   -0.0289   -0.0508 S.3       1 <0>         0.1553
     13 C10         5.3976   -3.9466   -0.0817 C.3       1 <0>         0.0823
     14 N2          5.3656   -4.4625    1.2934 N.4       1 <0>        -0.4784
     15 C11         5.5979   -5.9130    1.2777 C.3       1 <0>        -0.0838
     16 C12         4.4653   -6.8152    1.7717 C.3       1 <0>        -0.1535
     17 C13         5.7192   -6.6236    2.6272 C.3       1 <0>        -0.1543
     18 Br1         3.9964    2.4073   -0.0238 Br        1 <0>         0.0139
     19 H1         -0.9605    1.9051    0.0260 H         1 <0>         0.1575
     20 H2          1.1468    3.1739    0.0078 H         1 <0>         0.1587
     21 H3          1.2191   -1.7610   -0.0193 H         1 <0>         0.1554
     22 H4          7.2730   -1.8092   -0.0742 H         1 <0>         0.2053
     23 H5          4.6197   -4.4328   -0.6704 H         1 <0>         0.1439
     24 H6          6.3717   -4.1538   -0.5249 H         1 <0>         0.1450
     25 H7          6.0857   -4.0124    1.8383 H         1 <0>         0.4265
     26 H8          6.2142   -6.2815    0.4576 H         1 <0>         0.1791
     27 H9          3.5478   -6.3326    2.1083 H         1 <0>         0.1210
     28 H10         4.3361   -7.7776    1.2765 H         1 <0>         0.1343
     29 H11         6.4149   -7.4599    2.6949 H         1 <0>         0.1347
     30 H12         5.6266   -6.0149    3.5267 H         1 <0>         0.1202
     31 H13         4.4639   -4.2707    1.7036 H         1 <0>         0.4281
@<TRIPOS>BOND
     1    1    6 ar
     2    1    2 ar
     3    1   19 1
     4    2    3 ar
     5    2   20 1
     6    3    4 ar
     7    3   18 1
     8    4    5 ar
     9    4    8 1
    10    5    6 ar
    11    5   21 1
    12    6    7 1
    13    8   12 1
    14    8    9 2
    15    9   10 1
    16   10   11 2
    17   10   13 1
    18   11   12 1
    19   11   22 1
    20   13   14 1
    21   13   23 1
    22   13   24 1
    23   14   15 1
    24   14   25 1
    25   14   31 1
    26   15   17 1
    27   15   16 1
    28   15   26 1
    29   16   17 1
    30   16   27 1
    31   16   28 1
    32   17   29 1
    33   17   30 1
@<TRIPOS>MOLECULE
ZINC78975305
   35    36     0     0     0
SMALL
USER_CHARGES

@<TRIPOS>ATOM
      1 C1         -0.0173    1.4248    0.0099 C.3       1 <0>         0.0312
      2 O1          0.0021   -0.0041    0.0020 O.3       1 <0>        -0.3924
      3 C2         -1.2953   -0.6030    0.0112 C.3       1 <0>         0.0642
      4 C3         -1.1538   -2.1264    0.0017 C.3       1 <0>        -0.1316
      5 C4         -2.5429   -2.7677    0.0115 C.3       1 <0>         0.1212
      6 N1         -2.4075   -4.2264    0.0023 N.am      1 <0>        -0.7126
      7 C5         -3.5073   -5.0054    0.0087 C.2       1 <0>         0.5919
      8 O2         -4.6123   -4.4973    0.0219 O.2       1 <0>        -0.5341
      9 C6         -3.3711   -6.4721   -0.0005 C.2       1 <0>        -0.0138
     10 C7         -4.4826   -7.2727    0.0006 C.2       1 <0>        -0.1943
     11 S1         -3.8172   -8.8187   -0.0124 S.3       1 <0>         0.1854
     12 C8         -2.0947   -8.3539   -0.0188 C.2       1 <0>         0.1046
     13 N2         -2.1711   -7.0356   -0.0155 N.2       1 <0>        -0.4542
     14 C9         -0.8949   -9.2190   -0.0302 C.ar      1 <0>        -0.0003
     15 C10         0.3792   -8.6498   -0.0273 C.ar      1 <0>        -0.0685
     16 C11         1.4947   -9.4614   -0.0380 C.ar      1 <0>        -0.1035
     17 C12         1.3528  -10.8375   -0.0515 C.ar      1 <0>        -0.0912
     18 C13         0.0919  -11.4090   -0.0544 C.ar      1 <0>        -0.0326
     19 C14        -1.0324  -10.6070   -0.0380 C.ar      1 <0>        -0.0883
     20 Cl1        -0.0764  -13.1368   -0.0714 Cl        1 <0>        -0.0567
     21 H1          1.0053    1.8021    0.0021 H         1 <0>         0.0880
     22 H2         -0.5445    1.7859   -0.8732 H         1 <0>         0.0428
     23 H3         -0.5275    1.7763    0.9067 H         1 <0>         0.0429
     24 H4         -1.8320   -0.2936    0.9080 H         1 <0>         0.0538
     25 H5         -1.8490   -0.2840   -0.8718 H         1 <0>         0.0538
     26 H6         -0.6171   -2.4359   -0.8952 H         1 <0>         0.0800
     27 H7         -0.6001   -2.4454    0.8847 H         1 <0>         0.0800
     28 H8         -3.0796   -2.4582    0.9083 H         1 <0>         0.0729
     29 H9         -3.0966   -2.4487   -0.8716 H         1 <0>         0.0729
     30 H10        -1.5262   -4.6316   -0.0082 H         1 <0>         0.4113
     31 H11        -5.5234   -6.9846    0.0079 H         1 <0>         0.2122
     32 H12         0.4918   -7.5757   -0.0171 H         1 <0>         0.1425
     33 H13         2.4811   -9.0216   -0.0361 H         1 <0>         0.1431
     34 H14         2.2293  -11.4685   -0.0601 H         1 <0>         0.1411
     35 H15        -2.0158  -11.0535   -0.0354 H         1 <0>         0.1385
@<TRIPOS>BOND
     1    1    2 1
     2    1   21 1
     3    1   22 1
     4    1   23 1
     5    2    3 1
     6    3    4 1
     7    3   24 1
     8    3   25 1
     9    4    5 1
    10    4   26 1
    11    4   27 1
    12    5    6 1
    13    5   28 1
    14    5   29 1
    15    6    7 am
    16    6   30 1
    17    7    8 2
    18    7    9 1
    19    9   13 1
    20    9   10 2
    21   10   11 1
    22   10   31 1
    23   11   12 1
    24   12   13 2
    25   12   14 1
    26   14   19 ar
    27   14   15 ar
    28   15   16 ar
    29   15   32 1
    30   16   17 ar
    31   16   33 1
    32   17   18 ar
    33   17   34 1
    34   18   19 ar
    35   18   20 1
    36   19   35 1
@<TRIPOS>MOLECULE
ZINC83862428
   33    34     0     0     0
SMALL
USER_CHARGES

@<TRIPOS>ATOM
      1 C1         -0.0187    1.5258    0.0104 C.3       1 <0>        -0.1883
      2 C2          0.0021   -0.0041    0.0020 C.3       1 <0>        -0.0151
      3 N1          0.7126   -0.4907    1.1921 N.4       1 <0>        -0.5013
      4 C3          0.7325   -1.9595    1.1840 C.3       1 <0>         0.1170
      5 H1          1.1628   -2.3119    0.2466 H         1 <0>         0.1511
      6 C4         -0.6962   -2.4897    1.3206 C.3       1 <0>        -0.1799
      7 C5          1.5652   -2.4570    2.3374 C.2       1 <0>         0.0000
      8 C6          2.1571   -3.6789    2.2724 C.2       1 <0>        -0.1823
      9 S1          2.9808   -3.7314    3.8591 S.3       1 <0>         0.1431
     10 C7          2.4482   -2.1243    4.4342 C.2       1 <0>         0.1623
     11 N2          1.7246   -1.7087    3.4040 N.2       1 <0>        -0.5255
     12 C8          2.7405   -1.4408    5.7120 C.ar      1 <0>        -0.0545
     13 C9          2.2129   -0.1742    5.9659 C.ar      1 <0>        -0.0353
     14 C10         2.4897    0.4588    7.1611 C.ar      1 <0>        -0.0498
     15 C11         3.2895   -0.1599    8.1076 C.ar      1 <0>        -0.0494
     16 C12         3.8159   -1.4148    7.8633 C.ar      1 <0>        -0.1308
     17 C13         3.5417   -2.0627    6.6732 C.ar      1 <0>         0.1344
     18 F1          4.0519   -3.2912    6.4378 F         1 <0>        -0.1174
     19 Cl1         1.8340    2.0346    7.4784 Cl        1 <0>        -0.0380
     20 H2          1.0039    1.9031    0.0027 H         1 <0>         0.0804
     21 H3         -0.5459    1.8868   -0.8726 H         1 <0>         0.1076
     22 H4         -0.5289    1.8773    0.9072 H         1 <0>         0.0810
     23 H5         -1.0205   -0.3814    0.0098 H         1 <0>         0.1329
     24 H6          0.5123   -0.3556   -0.8948 H         1 <0>         0.1314
     25 H7          1.6592   -0.1414    1.1850 H         1 <0>         0.4292
     26 H8         -1.2985   -2.1299    0.4864 H         1 <0>         0.0897
     27 H9         -0.6814   -3.5796    1.3146 H         1 <0>         0.1067
     28 H10        -1.1265   -2.1373    2.2580 H         1 <0>         0.0842
     29 H11         2.1360   -4.4143    1.4818 H         1 <0>         0.2113
     30 H12         1.5896    0.3101    5.2288 H         1 <0>         0.1522
     31 H13         3.5033    0.3404    9.0405 H         1 <0>         0.1581
     32 H14         4.4389   -1.8918    8.6055 H         1 <0>         0.1625
     33 H15         0.2403   -0.1653    2.0223 H         1 <0>         0.4323
@<TRIPOS>BOND
     1    1    2 1
     2    1   20 1
     3    1   21 1
     4    1   22 1
     5    2    3 1
     6    2   23 1
     7    2   24 1
     8    3    4 1
     9    3   25 1
    10    3   33 1
    11    4    5 1
    12    4    6 1
    13    4    7 1
    14    6   26 1
    15    6   27 1
    16    6   28 1
    17    7   11 1
    18    7    8 2
    19    8    9 1
    20    8   29 1
    21    9   10 1
    22   10   11 2
    23   10   12 1
    24   12   17 ar
    25   12   13 ar
    26   13   14 ar
    27   13   30 1
    28   14   15 ar
    29   14   19 1
    30   15   16 ar
    31   15   31 1
    32   16   17 ar
    33   16   32 1
    34   17   18 1
@<TRIPOS>MOLECULE
ZINC80802992
   36    37     0     0     0
SMALL
USER_CHARGES

@<TRIPOS>ATOM
      1 C1         -0.0187    1.5258    0.0104 C.3       1 <0>        -0.1562
      2 C2          0.0021   -0.0041    0.0020 C.3       1 <0>        -0.1497
      3 C3          0.7182   -0.4975   -1.2568 C.3       1 <0>        -0.0158
      4 N1          0.7381   -1.9663   -1.2649 N.4       1 <0>        -0.5005
      5 C4          1.4257   -2.4401   -2.4735 C.3       1 <0>         0.1175
      6 H1          0.9519   -2.0070   -3.3544 H         1 <0>         0.1510
      7 C5          2.8948   -2.0156   -2.4239 C.3       1 <0>        -0.1799
      8 C6          1.3392   -3.9429   -2.5442 C.2       1 <0>        -0.0004
      9 C7          1.4315   -4.5744   -3.7443 C.2       1 <0>        -0.1823
     10 S1          1.2689   -6.2804   -3.2330 S.3       1 <0>         0.1416
     11 C8          1.0961   -5.9672   -1.4812 C.2       1 <0>         0.1630
     12 N2          1.1799   -4.6446   -1.4464 N.2       1 <0>        -0.5250
     13 C9          0.9137   -6.9253   -0.3703 C.ar      1 <0>        -0.0549
     14 C10         0.7923   -6.4633    0.9411 C.ar      1 <0>        -0.0389
     15 C11         0.6223   -7.3618    1.9738 C.ar      1 <0>        -0.1133
     16 C12         0.5716   -8.7200    1.7138 C.ar      1 <0>        -0.0510
     17 C13         0.6910   -9.1875    0.4169 C.ar      1 <0>        -0.0724
     18 C14         0.8562   -8.2971   -0.6290 C.ar      1 <0>         0.1364
     19 F1          0.9671   -8.7529   -1.8960 F         1 <0>        -0.1109
     20 Cl1         0.6267  -10.8934    0.1011 Cl        1 <0>        -0.0215
     21 H2          1.0039    1.9031    0.0027 H         1 <0>         0.0672
     22 H3         -0.5459    1.8868   -0.8726 H         1 <0>         0.0671
     23 H4         -0.5289    1.8773    0.9072 H         1 <0>         0.0777
     24 H5          0.5293   -0.3651    0.8851 H         1 <0>         0.0865
     25 H6         -1.0205   -0.3814    0.0098 H         1 <0>         0.0860
     26 H7          0.1910   -0.1364   -2.1398 H         1 <0>         0.1319
     27 H8          1.7408   -0.1202   -1.2645 H         1 <0>         0.1336
     28 H9          1.2261   -2.3006   -0.4474 H         1 <0>         0.4323
     29 H10         2.9574   -0.9286   -2.3728 H         1 <0>         0.0895
     30 H11         3.3686   -2.4487   -1.5430 H         1 <0>         0.0842
     31 H12         3.4050   -2.3671   -3.3207 H         1 <0>         0.1069
     32 H13         1.5655   -4.1605   -4.7328 H         1 <0>         0.2111
     33 H14         0.8319   -5.4039    1.1470 H         1 <0>         0.1483
     34 H15         0.5288   -7.0041    2.9886 H         1 <0>         0.1543
     35 H16         0.4387   -9.4183    2.5268 H         1 <0>         0.1572
     36 H17        -0.2085   -2.3156   -1.2577 H         1 <0>         0.4293
@<TRIPOS>BOND
     1    1    2 1
     2    1   21 1
     3    1   22 1
     4    1   23 1
     5    2    3 1
     6    2   24 1
     7    2   25 1
     8    3    4 1
     9    3   26 1
    10    3   27 1
    11    4    5 1
    12    4   28 1
    13    4   36 1
    14    5    6 1
    15    5    7 1
    16    5    8 1
    17    7   29 1
    18    7   30 1
    19    7   31 1
    20    8   12 1
    21    8    9 2
    22    9   10 1
    23    9   32 1
    24   10   11 1
    25   11   12 2
    26   11   13 1
    27   13   18 ar
    28   13   14 ar
    29   14   15 ar
    30   14   33 1
    31   15   16 ar
    32   15   34 1
    33   16   17 ar
    34   16   35 1
    35   17   18 ar
    36   17   20 1
    37   18   19 1
@<TRIPOS>MOLECULE
ZINC43389064
   31    33     0     0     0
SMALL
USER_CHARGES

@<TRIPOS>ATOM
      1 C1         -0.0168    1.3911    0.0097 C.ar      1 <0>        -0.0837
      2 C2          1.1696    2.0955    0.0021 C.ar      1 <0>        -0.0753
      3 C3          2.3783    1.4215   -0.0130 C.ar      1 <0>        -0.0499
      4 C4          2.4046    0.0346   -0.0212 C.ar      1 <0>         0.1147
      5 C5          1.2227   -0.6803   -0.0142 C.ar      1 <0>        -0.0918
      6 C6          0.0021   -0.0041    0.0020 C.ar      1 <0>        -0.0049
      7 C7         -1.2667   -0.7633    0.0105 C.2       1 <0>         0.1699
      8 N1         -1.4626   -2.0744    0.0109 N.2       1 <0>        -0.4997
      9 C8         -2.6726   -2.5825    0.0199 C.2       1 <0>        -0.0113
     10 C9         -3.7535   -1.7581    0.0291 C.2       1 <0>        -0.1755
     11 S1         -2.9498   -0.1604    0.0311 S.3       1 <0>         0.1147
     12 C10        -2.8634   -4.0774    0.0196 C.3       1 <0>         0.0827
     13 N2         -2.8161   -4.5768   -1.3611 N.4       1 <0>        -0.4785
     14 C11        -3.0022   -6.0339   -1.3615 C.3       1 <0>        -0.0845
     15 C12        -1.8418   -6.8942   -1.8659 C.3       1 <0>        -0.1534
     16 C13        -3.1019   -6.7331   -2.7187 C.3       1 <0>        -0.1537
     17 F1          3.5876   -0.6176   -0.0364 F         1 <0>        -0.1144
     18 Cl1         3.8667    2.3148   -0.0224 Cl        1 <0>        -0.0217
     19 H1         -0.9589    1.9190    0.0260 H         1 <0>         0.1461
     20 H2          1.1550    3.1754    0.0077 H         1 <0>         0.1601
     21 H3          1.2433   -1.7601   -0.0213 H         1 <0>         0.1568
     22 H4         -4.8058   -2.0008    0.0368 H         1 <0>         0.2132
     23 H5         -2.0700   -4.5451    0.6025 H         1 <0>         0.1462
     24 H6         -3.8300   -4.3204    0.4609 H         1 <0>         0.1470
     25 H7         -3.5506   -4.1438   -1.9007 H         1 <0>         0.4268
     26 H8         -3.6057   -6.4310   -0.5453 H         1 <0>         0.1797
     27 H9         -0.9404   -6.3789   -2.1976 H         1 <0>         0.1213
     28 H10        -1.6817   -7.8574   -1.3815 H         1 <0>         0.1347
     29 H11        -3.7707   -7.5903   -2.7953 H         1 <0>         0.1351
     30 H12        -3.0294   -6.1118   -3.6114 H         1 <0>         0.1205
     31 H13        -1.9214   -4.3519   -1.7697 H         1 <0>         0.4287
@<TRIPOS>BOND
     1    1    6 ar
     2    1    2 ar
     3    1   19 1
     4    2    3 ar
     5    2   20 1
     6    3    4 ar
     7    3   18 1
     8    4    5 ar
     9    4   17 1
    10    5    6 ar
    11    5   21 1
    12    6    7 1
    13    7   11 1
    14    7    8 2
    15    8    9 1
    16    9   10 2
    17    9   12 1
    18   10   11 1
    19   10   22 1
    20   12   13 1
    21   12   23 1
    22   12   24 1
    23   13   14 1
    24   13   25 1
    25   13   31 1
    26   14   16 1
    27   14   15 1
    28   14   26 1
    29   15   16 1
    30   15   27 1
    31   15   28 1
    32   16   29 1
    33   16   30 1
@<TRIPOS>MOLECULE
ZINC61847358
   33    34     0     0     0
SMALL
USER_CHARGES

@<TRIPOS>ATOM
      1 C1         -0.0187    1.5258    0.0104 C.3       1 <0>        -0.1858
      2 C2          0.0021   -0.0041    0.0020 C.3       1 <0>         0.0240
      3 C3          0.7421   -0.5109    1.2415 C.3       1 <0>        -0.1842
      4 N1         -1.3761   -0.5125    0.0124 N.4       1 <0>        -0.5064
      5 C4         -2.0500   -0.1262   -1.2343 C.3       1 <0>         0.0743
      6 C5         -3.4638   -0.6478   -1.2236 C.2       1 <0>        -0.0133
      7 C6         -4.4817    0.1532   -0.8120 C.2       1 <0>        -0.2021
      8 S1         -5.8725   -0.9544   -1.0056 S.3       1 <0>         0.1419
      9 C7         -4.9486   -2.3600   -1.6120 C.2       1 <0>         0.1584
     10 N2         -3.7148   -1.8748   -1.6169 N.2       1 <0>        -0.4978
     11 C8         -5.4313   -3.7002   -2.0073 C.ar      1 <0>        -0.0365
     12 C9         -4.5283   -4.6665   -2.4534 C.ar      1 <0>        -0.0244
     13 C10        -4.9836   -5.9152   -2.8204 C.ar      1 <0>        -0.1470
     14 C11        -6.3356   -6.2125   -2.7472 C.ar      1 <0>         0.1507
     15 C12        -7.2371   -5.2580   -2.3052 C.ar      1 <0>        -0.1412
     16 C13        -6.7918   -4.0061   -1.9301 C.ar      1 <0>         0.0094
     17 Cl1        -7.9213   -2.8128   -1.3697 Cl        1 <0>        -0.0138
     18 F1         -6.7758   -7.4376   -3.1085 F         1 <0>        -0.1158
     19 H1          1.0039    1.9031    0.0027 H         1 <0>         0.1071
     20 H2         -0.5459    1.8868   -0.8726 H         1 <0>         0.0815
     21 H3         -0.5289    1.8773    0.9072 H         1 <0>         0.0821
     22 H4          0.5123   -0.3556   -0.8948 H         1 <0>         0.1404
     23 H5          0.2319   -0.1594    2.1383 H         1 <0>         0.0812
     24 H6          0.7568   -1.6008    1.2356 H         1 <0>         0.0817
     25 H7          1.7647   -0.1336    1.2338 H         1 <0>         0.1077
     26 H8         -1.3629   -1.5185    0.0898 H         1 <0>         0.4306
     27 H9         -2.0643    0.9605   -1.3179 H         1 <0>         0.1455
     28 H10        -1.5132   -0.5489   -2.0836 H         1 <0>         0.1440
     29 H11        -4.4575    1.1754   -0.4641 H         1 <0>         0.2069
     30 H12        -3.4747   -4.4364   -2.5114 H         1 <0>         0.1561
     31 H13        -4.2854   -6.6632   -3.1660 H         1 <0>         0.1580
     32 H14        -8.2894   -5.4947   -2.2505 H         1 <0>         0.1625
     33 H15        -1.8730   -0.1212    0.7986 H         1 <0>         0.4240
@<TRIPOS>BOND
     1    1    2 1
     2    1   19 1
     3    1   20 1
     4    1   21 1
     5    2    3 1
     6    2    4 1
     7    2   22 1
     8    3   23 1
     9    3   24 1
    10    3   25 1
    11    4    5 1
    12    4   26 1
    13    4   33 1
    14    5    6 1
    15    5   27 1
    16    5   28 1
    17    6   10 1
    18    6    7 2
    19    7    8 1
    20    7   29 1
    21    8    9 1
    22    9   10 2
    23    9   11 1
    24   11   16 ar
    25   11   12 ar
    26   12   13 ar
    27   12   30 1
    28   13   14 ar
    29   13   31 1
    30   14   15 ar
    31   14   18 1
    32   15   16 ar
    33   15   32 1
    34   16   17 1
@<TRIPOS>MOLECULE
ZINC61798207
   22    23     0     0     0
SMALL
USER_CHARGES

@<TRIPOS>ATOM
      1 C1         -0.0167    1.3803    0.0096 C.ar      1 <0>        -0.0614
      2 C2          1.1678    2.0944    0.0022 C.ar      1 <0>        -0.1355
      3 C3          2.3789    1.4289   -0.0135 C.ar      1 <0>         0.1274
      4 C4          2.4042    0.0314   -0.0212 C.ar      1 <0>        -0.0358
      5 C5          1.2052   -0.6818   -0.0131 C.ar      1 <0>        -0.0358
      6 C6          0.0021   -0.0041    0.0020 C.ar      1 <0>        -0.0481
      7 Cl1        -1.4907   -0.8902    0.0121 Cl        1 <0>        -0.0464
      8 C7          3.6957   -0.6878   -0.0384 C.2       1 <0>         0.1405
      9 N1          3.9323   -1.9921   -0.0533 N.2       1 <0>        -0.4845
     10 C8          5.1578   -2.4621   -0.0675 C.2       1 <0>         0.0511
     11 C9          6.2123   -1.6044   -0.0671 C.2       1 <0>        -0.1896
     12 S1          5.3592   -0.0326   -0.0527 S.3       1 <0>         0.0717
     13 C10         5.3952   -3.9502   -0.0837 C.3       1 <0>         0.0499
     14 C11         4.6950   -4.5712    1.0524 C.1       1 <0>         0.2100
     15 N2          4.1546   -5.0505    1.9292 N.1       1 <0>        -0.4236
     16 F1          3.5353    2.1273   -0.0216 F         1 <0>        -0.1194
     17 H1         -0.9605    1.9050    0.0260 H         1 <0>         0.1526
     18 H2          1.1462    3.1741    0.0082 H         1 <0>         0.1571
     19 H3          1.2179   -1.7617   -0.0194 H         1 <0>         0.1565
     20 H4          7.2717   -1.8140   -0.0773 H         1 <0>         0.2083
     21 H5          5.0167   -4.3684   -1.0164 H         1 <0>         0.1268
     22 H6          6.4641   -4.1484   -0.0040 H         1 <0>         0.1284
@<TRIPOS>BOND
     1    1    6 ar
     2    1    2 ar
     3    1   17 1
     4    2    3 ar
     5    2   18 1
     6    3    4 ar
     7    3   16 1
     8    4    5 ar
     9    4    8 1
    10    5    6 ar
    11    5   19 1
    12    6    7 1
    13    8   12 1
    14    8    9 2
    15    9   10 1
    16   10   11 2
    17   10   13 1
    18   11   12 1
    19   11   20 1
    20   13   14 1
    21   13   21 1
    22   13   22 1
    23   14   15 3
@<TRIPOS>MOLECULE
ZINC37985035
   42    43     0     0     0
SMALL
USER_CHARGES

@<TRIPOS>ATOM
      1 C1         -0.0187    1.5258    0.0104 C.3       1 <0>        -0.1536
      2 C2          0.0021   -0.0041    0.0020 C.3       1 <0>        -0.0968
      3 C3          0.7421   -0.5109    1.2415 C.3       1 <0>        -0.1545
      4 C4         -1.4333   -0.5336    0.0129 C.3       1 <0>        -0.1131
      5 C5         -1.4157   -2.0577   -0.1212 C.3       1 <0>        -0.1525
      6 C6         -2.8510   -2.5872   -0.1103 C.3       1 <0>        -0.0096
      7 N1         -2.8341   -4.0505   -0.2391 N.4       1 <0>        -0.5084
      8 C7         -4.2123   -4.5590   -0.2287 C.3       1 <0>         0.0781
      9 C8         -4.1949   -6.0601   -0.3607 C.2       1 <0>        -0.0087
     10 C9         -4.2481   -6.8418    0.7500 C.2       1 <0>        -0.1817
     11 S1         -4.1985   -8.4695    0.0106 S.3       1 <0>         0.0968
     12 C10        -4.1124   -7.9325   -1.6926 C.2       1 <0>         0.1839
     13 N2         -4.1337   -6.6148   -1.5487 N.2       1 <0>        -0.5078
     14 C11        -4.0421   -8.7404   -2.9289 C.ar      1 <0>        -0.0549
     15 C12        -3.9745   -8.1120   -4.1732 C.ar      1 <0>        -0.0331
     16 C13        -3.9090   -8.8703   -5.3233 C.ar      1 <0>        -0.1555
     17 C14        -3.9108  -10.2540   -5.2449 C.ar      1 <0>         0.1392
     18 C15        -3.9778  -10.8830   -4.0118 C.ar      1 <0>        -0.1500
     19 C16        -4.0373  -10.1341   -2.8552 C.ar      1 <0>        -0.0533
     20 F1         -3.8474  -10.9922   -6.3746 F         1 <0>        -0.1240
     21 H1          1.0039    1.9031    0.0027 H         1 <0>         0.0615
     22 H2         -0.5459    1.8868   -0.8726 H         1 <0>         0.0576
     23 H3         -0.5289    1.8773    0.9072 H         1 <0>         0.0578
     24 H4          0.5123   -0.3556   -0.8948 H         1 <0>         0.0731
     25 H5          0.7568   -1.6008    1.2356 H         1 <0>         0.0517
     26 H6          1.7647   -0.1336    1.2338 H         1 <0>         0.0615
     27 H7          0.2319   -0.1594    2.1383 H         1 <0>         0.0580
     28 H8         -1.9156   -0.2570    0.9504 H         1 <0>         0.0748
     29 H9         -1.9862   -0.1019   -0.8214 H         1 <0>         0.0746
     30 H10        -0.9334   -2.3344   -1.0587 H         1 <0>         0.0872
     31 H11        -0.8628   -2.4894    0.7131 H         1 <0>         0.0893
     32 H12        -3.3333   -2.3105    0.8272 H         1 <0>         0.1332
     33 H13        -3.4039   -2.1555   -0.9446 H         1 <0>         0.1333
     34 H14        -2.3877   -4.3066   -1.1069 H         1 <0>         0.4311
     35 H15        -4.6945   -4.2823    0.7089 H         1 <0>         0.1459
     36 H16        -4.7651   -4.1272   -1.0629 H         1 <0>         0.1453
     37 H17        -4.3045   -6.5585    1.7906 H         1 <0>         0.2107
     38 H18        -3.9737   -7.0338   -4.2354 H         1 <0>         0.1453
     39 H19        -3.8567   -8.3850   -6.2867 H         1 <0>         0.1502
     40 H20        -3.9788  -11.9616   -3.9563 H         1 <0>         0.1519
     41 H21        -4.0845  -10.6252   -1.8946 H         1 <0>         0.1394
     42 H22        -2.3223   -4.4502    0.5332 H         1 <0>         0.4260
@<TRIPOS>BOND
     1    1    2 1
     2    1   21 1
     3    1   22 1
     4    1   23 1
     5    2    3 1
     6    2    4 1
     7    2   24 1
     8    3   25 1
     9    3   26 1
    10    3   27 1
    11    4    5 1
    12    4   28 1
    13    4   29 1
    14    5    6 1
    15    5   30 1
    16    5   31 1
    17    6    7 1
    18    6   32 1
    19    6   33 1
    20    7    8 1
    21    7   34 1
    22    7   42 1
    23    8    9 1
    24    8   35 1
    25    8   36 1
    26    9   13 1
    27    9   10 2
    28   10   11 1
    29   10   37 1
    30   11   12 1
    31   12   13 2
    32   12   14 1
    33   14   19 ar
    34   14   15 ar
    35   15   16 ar
    36   15   38 1
    37   16   17 ar
    38   16   39 1
    39   17   18 ar
    40   17   20 1
    41   18   19 ar
    42   18   40 1
    43   19   41 1
@<TRIPOS>MOLECULE
ZINC35163479
   34    35     0     0     0
SMALL
USER_CHARGES

@<TRIPOS>ATOM
      1 C1         -0.0187    1.5258    0.0104 C.3       1 <0>        -0.1894
      2 C2          0.0021   -0.0041    0.0020 C.3       1 <0>         0.0813
      3 H1         -1.0205   -0.3814    0.0098 H         1 <0>         0.1238
      4 C3          0.7421   -0.5109    1.2415 C.3       1 <0>        -0.0459
      5 N1          0.7620   -1.9797    1.2335 N.4       1 <0>        -0.5041
      6 C4          1.4725   -2.4664    2.4236 C.3       1 <0>         0.0778
      7 C5          1.4929   -3.9732    2.4153 C.2       1 <0>        -0.0090
      8 C6          2.5658   -4.6367    1.9089 C.2       1 <0>        -0.1813
      9 S1          2.0514   -6.3319    2.1543 S.3       1 <0>         0.0987
     10 C7          0.4677   -5.9728    2.9026 C.2       1 <0>         0.1841
     11 N2          0.4771   -4.6471    2.9020 N.2       1 <0>        -0.5080
     12 C8         -0.5703   -6.9035    3.3945 C.ar      1 <0>        -0.0549
     13 C9         -1.7522   -6.4064    3.9457 C.ar      1 <0>        -0.0331
     14 C10        -2.7173   -7.2790    4.4032 C.ar      1 <0>        -0.1555
     15 C11        -2.5148   -8.6473    4.3167 C.ar      1 <0>         0.1392
     16 C12        -1.3430   -9.1462    3.7703 C.ar      1 <0>        -0.1499
     17 C13        -0.3742   -8.2824    3.3042 C.ar      1 <0>        -0.0532
     18 F1         -3.4630   -9.4978    4.7671 F         1 <0>        -0.1240
     19 O1          0.6709   -0.4649   -1.1737 O.3       1 <0>        -0.5576
     20 H2          1.0039    1.9031    0.0027 H         1 <0>         0.0722
     21 H3         -0.5459    1.8868   -0.8726 H         1 <0>         0.0879
     22 H4         -0.5289    1.8773    0.9072 H         1 <0>         0.0805
     23 H5          1.7647   -0.1336    1.2338 H         1 <0>         0.1366
     24 H6          0.2319   -0.1594    2.1383 H         1 <0>         0.1440
     25 H7         -0.1846   -2.3290    1.2406 H         1 <0>         0.4320
     26 H8          2.4951   -2.0891    2.4158 H         1 <0>         0.1453
     27 H9          0.9623   -2.1149    3.3204 H         1 <0>         0.1453
     28 H10         3.4764   -4.2479    1.4776 H         1 <0>         0.2106
     29 H11        -1.9107   -5.3403    4.0142 H         1 <0>         0.1452
     30 H12        -3.6322   -6.8954    4.8299 H         1 <0>         0.1502
     31 H13        -1.1902  -10.2134    3.7052 H         1 <0>         0.1520
     32 H14         0.5365   -8.6722    2.8741 H         1 <0>         0.1394
     33 H15         1.5879   -0.1667   -1.2470 H         1 <0>         0.3896
     34 H16         1.2343   -2.3051    0.4033 H         1 <0>         0.4298
@<TRIPOS>BOND
     1    1    2 1
     2    1   20 1
     3    1   21 1
     4    1   22 1
     5    2    3 1
     6    2    4 1
     7    2   19 1
     8    4    5 1
     9    4   23 1
    10    4   24 1
    11    5    6 1
    12    5   25 1
    13    5   34 1
    14    6    7 1
    15    6   26 1
    16    6   27 1
    17    7   11 1
    18    7    8 2
    19    8    9 1
    20    8   28 1
    21    9   10 1
    22   10   11 2
    23   10   12 1
    24   12   17 ar
    25   12   13 ar
    26   13   14 ar
    27   13   29 1
    28   14   15 ar
    29   14   30 1
    30   15   16 ar
    31   15   18 1
    32   16   17 ar
    33   16   31 1
    34   17   32 1
    35   19   33 1
@<TRIPOS>MOLECULE
ZINC35163478
   34    35     0     0     0
SMALL
USER_CHARGES

@<TRIPOS>ATOM
      1 C1         -0.0187    1.5258    0.0104 C.3       1 <0>        -0.1895
      2 C2          0.0021   -0.0041    0.0020 C.3       1 <0>         0.0816
      3 H1          0.5123   -0.3556   -0.8948 H         1 <0>         0.1224
      4 C3          0.7421   -0.5109    1.2415 C.3       1 <0>        -0.0459
      5 N1          0.8668   -1.9730    1.1737 N.4       1 <0>        -0.5047
      6 C4          1.5773   -2.4597    2.3638 C.3       1 <0>         0.0777
      7 C5          1.7052   -3.9596    2.2941 C.2       1 <0>        -0.0087
      8 C6          2.8360   -4.5239    1.7937 C.2       1 <0>        -0.1821
      9 S1          2.4371   -6.2599    1.9534 S.3       1 <0>         0.0981
     10 C7          0.8120   -6.0452    2.6674 C.2       1 <0>         0.1846
     11 N2          0.7270   -4.7233    2.7216 N.2       1 <0>        -0.5077
     12 C8         -0.1702   -7.0667    3.0889 C.ar      1 <0>        -0.0550
     13 C9         -1.3991   -6.6778    3.6240 C.ar      1 <0>        -0.0328
     14 C10        -2.3118   -7.6348    4.0156 C.ar      1 <0>        -0.1555
     15 C11        -2.0101   -8.9805    3.8792 C.ar      1 <0>         0.1393
     16 C12        -0.7912   -9.3721    3.3485 C.ar      1 <0>        -0.1500
     17 C13         0.1261   -8.4232    2.9479 C.ar      1 <0>        -0.0532
     18 F1         -2.9072   -9.9139    4.2652 F         1 <0>        -0.1240
     19 O1         -1.3386   -0.4987    0.0122 O.3       1 <0>        -0.5569
     20 H2          1.0039    1.9031    0.0027 H         1 <0>         0.0799
     21 H3         -0.5459    1.8868   -0.8726 H         1 <0>         0.0878
     22 H4         -0.5289    1.8773    0.9072 H         1 <0>         0.0725
     23 H5          1.7350   -0.0630    1.2804 H         1 <0>         0.1436
     24 H6          0.1838   -0.2350    2.1361 H         1 <0>         0.1368
     25 H7         -0.0524   -2.3877    1.1377 H         1 <0>         0.4353
     26 H8          2.5702   -2.0117    2.4026 H         1 <0>         0.1460
     27 H9          1.0190   -2.1838    3.2584 H         1 <0>         0.1447
     28 H10         3.7281   -4.0540    1.4066 H         1 <0>         0.2108
     29 H11        -1.6349   -5.6293    3.7314 H         1 <0>         0.1453
     30 H12        -3.2631   -7.3349    4.4298 H         1 <0>         0.1503
     31 H13        -0.5610  -10.4221    3.2443 H         1 <0>         0.1520
     32 H14         1.0737   -8.7294    2.5300 H         1 <0>         0.1394
     33 H15        -1.8531   -0.2245    0.7836 H         1 <0>         0.3909
     34 H16         1.3836   -2.2284    0.3456 H         1 <0>         0.4268
@<TRIPOS>BOND
     1    1    2 1
     2    1   20 1
     3    1   21 1
     4    1   22 1
     5    2    3 1
     6    2    4 1
     7    2   19 1
     8    4    5 1
     9    4   23 1
    10    4   24 1
    11    5    6 1
    12    5   25 1
    13    5   34 1
    14    6    7 1
    15    6   26 1
    16    6   27 1
    17    7   11 1
    18    7    8 2
    19    8    9 1
    20    8   28 1
    21    9   10 1
    22   10   11 2
    23   10   12 1
    24   12   17 ar
    25   12   13 ar
    26   13   14 ar
    27   13   29 1
    28   14   15 ar
    29   14   30 1
    30   15   16 ar
    31   15   18 1
    32   16   17 ar
    33   16   31 1
    34   17   32 1
    35   19   33 1
@<TRIPOS>MOLECULE
ZINC35163427
   33    35     0     0     0
SMALL
USER_CHARGES

@<TRIPOS>ATOM
      1 C1         -0.0167    1.3786    0.0096 C.ar      1 <0>        -0.1795
      2 C2          1.1695    2.0894    0.0021 C.ar      1 <0>        -0.0721
      3 C3          2.3774    1.4200   -0.0130 C.ar      1 <0>        -0.1952
      4 C4          2.3998    0.0311   -0.0206 C.ar      1 <0>         0.2164
      5 C5          1.2064   -0.6798   -0.0130 C.ar      1 <0>        -0.1988
      6 C6          0.0021   -0.0041    0.0020 C.ar      1 <0>        -0.0721
      7 N1          3.6196   -0.6492   -0.0363 N.pl3     1 <0>        -0.7430
      8 C7          3.6414   -2.1140   -0.0443 C.3       1 <0>         0.1996
      9 C8          5.0695   -2.5950   -0.0611 C.2       1 <0>         0.0397
     10 C9          5.6918   -2.9206    1.1027 C.2       1 <0>        -0.1780
     11 S1          7.3014   -3.4050    0.4919 S.3       1 <0>         0.0280
     12 C10         6.9706   -3.1217   -1.2422 C.2       1 <0>         0.1568
     13 N2          5.7126   -2.7055   -1.1999 N.2       1 <0>        -0.4849
     14 C11         7.8590   -3.3069   -2.4094 C.ar      1 <0>        -0.0312
     15 C12         7.3969   -3.0170   -3.6941 C.ar      1 <0>        -0.0390
     16 C13         8.2297   -3.1916   -4.7794 C.ar      1 <0>        -0.1535
     17 C14         9.5230   -3.6545   -4.5962 C.ar      1 <0>         0.1221
     18 C15         9.9868   -3.9440   -3.3228 C.ar      1 <0>        -0.1511
     19 C16         9.1643   -3.7670   -2.2299 C.ar      1 <0>        -0.0612
     20 F1         10.3345   -3.8247   -5.6629 F         1 <0>        -0.1316
     21 H1         -0.9598    1.9046    0.0260 H         1 <0>         0.1178
     22 H2          1.1513    3.1692    0.0077 H         1 <0>         0.1204
     23 H3          3.3034    1.9757   -0.0192 H         1 <0>         0.1176
     24 H4          1.2204   -1.7597   -0.0193 H         1 <0>         0.1192
     25 H5         -0.9261   -0.5561    0.0079 H         1 <0>         0.1203
     26 H6          4.4523   -0.1517   -0.0419 H         1 <0>         0.3996
     27 H7          3.1419   -2.4897    0.8486 H         1 <0>         0.0767
     28 H8          3.1243   -2.4802   -0.9312 H         1 <0>         0.0766
     29 H9          5.3179   -2.8939    2.1156 H         1 <0>         0.2032
     30 H10         6.3890   -2.6568   -3.8380 H         1 <0>         0.1469
     31 H11         7.8732   -2.9675   -5.7740 H         1 <0>         0.1462
     32 H12        10.9956   -4.3045   -3.1854 H         1 <0>         0.1465
     33 H13         9.5283   -3.9882   -1.2375 H         1 <0>         0.1380
@<TRIPOS>BOND
     1    1    6 ar
     2    1    2 ar
     3    1   21 1
     4    2    3 ar
     5    2   22 1
     6    3    4 ar
     7    3   23 1
     8    4    5 ar
     9    4    7 1
    10    5    6 ar
    11    5   24 1
    12    6   25 1
    13    7    8 1
    14    7   26 1
    15    8    9 1
    16    8   27 1
    17    8   28 1
    18    9   13 1
    19    9   10 2
    20   10   11 1
    21   10   29 1
    22   11   12 1
    23   12   13 2
    24   12   14 1
    25   14   19 ar
    26   14   15 ar
    27   15   16 ar
    28   15   30 1
    29   16   17 ar
    30   16   31 1
    31   17   18 ar
    32   17   20 1
    33   18   19 ar
    34   18   32 1
    35   19   33 1
@<TRIPOS>MOLECULE
ZINC45598289
   45    46     0     0     0
SMALL
USER_CHARGES

@<TRIPOS>ATOM
      1 C1         -0.0178    1.4648    0.0101 C.3       1 <0>        -0.0497
      2 N1          0.0021   -0.0041    0.0020 N.4       1 <0>        -0.3875
      3 C2          0.7126   -0.4907    1.1921 C.3       1 <0>        -0.0548
      4 C3         -1.3761   -0.5125    0.0124 C.3       1 <0>        -0.0116
      5 C4         -1.3584   -2.0365   -0.1216 C.3       1 <0>        -0.1490
      6 C5         -2.7938   -2.5661   -0.1108 C.3       1 <0>        -0.1488
      7 C6         -2.7762   -4.0901   -0.2449 C.3       1 <0>        -0.0090
      8 N2         -4.1543   -4.5986   -0.2344 N.4       1 <0>        -0.5090
      9 C7         -4.1374   -6.0619   -0.3632 C.3       1 <0>         0.0800
     10 C8         -5.5512   -6.5835   -0.3525 C.2       1 <0>        -0.0136
     11 C9         -6.1993   -6.8176   -1.5241 C.2       1 <0>        -0.1857
     12 S1         -7.7766   -7.4029   -0.9176 S.3       1 <0>         0.1096
     13 C10        -7.4017   -7.2721    0.8258 C.2       1 <0>         0.1894
     14 N3         -6.1569   -6.8176    0.7882 N.2       1 <0>        -0.5131
     15 C11        -8.2495   -7.5904    1.9944 C.ar      1 <0>        -0.0607
     16 C12        -7.7571   -7.4075    3.2874 C.ar      1 <0>        -0.0326
     17 C13        -8.5521   -7.7060    4.3741 C.ar      1 <0>        -0.1566
     18 C14        -9.8378   -8.1872    4.1838 C.ar      1 <0>         0.1439
     19 C15       -10.3317   -8.3706    2.9020 C.ar      1 <0>        -0.1490
     20 C16        -9.5472   -8.0693    1.8084 C.ar      1 <0>        -0.0513
     21 F1        -10.6122   -8.4789    5.2517 F         1 <0>        -0.1214
     22 H1          1.0047    1.8421    0.0024 H         1 <0>         0.1300
     23 H2         -0.5450    1.8259   -0.8730 H         1 <0>         0.1259
     24 H3         -0.5280    1.8163    0.9069 H         1 <0>         0.1245
     25 H4          0.7273   -1.5806    1.1861 H         1 <0>         0.1223
     26 H5          1.7352   -0.1134    1.1844 H         1 <0>         0.1300
     27 H6          0.2024   -0.1392    2.0889 H         1 <0>         0.1248
     28 H7         -1.8584   -0.2358    0.9500 H         1 <0>         0.1336
     29 H8         -1.9290   -0.0808   -0.8218 H         1 <0>         0.1346
     30 H9         -0.8762   -2.3132   -1.0592 H         1 <0>         0.0994
     31 H10        -0.8055   -2.4683    0.7126 H         1 <0>         0.0997
     32 H11        -3.2761   -2.2894    0.8267 H         1 <0>         0.0992
     33 H12        -3.3467   -2.1344   -0.9450 H         1 <0>         0.0994
     34 H13        -2.2939   -4.3668   -1.1824 H         1 <0>         0.1374
     35 H14        -2.2233   -4.5219    0.5894 H         1 <0>         0.1371
     36 H15        -4.6008   -4.3425    0.6334 H         1 <0>         0.4333
     37 H16        -3.6551   -6.3385   -1.3007 H         1 <0>         0.1471
     38 H17        -3.5845   -6.4936    0.4711 H         1 <0>         0.1466
     39 H18        -5.8567   -6.6863   -2.5399 H         1 <0>         0.2101
     40 H19        -6.7551   -7.0333    3.4368 H         1 <0>         0.1437
     41 H20        -8.1720   -7.5649    5.3751 H         1 <0>         0.1508
     42 H21       -11.3343   -8.7458    2.7592 H         1 <0>         0.1539
     43 H22        -9.9347   -8.2080    0.8099 H         1 <0>         0.1399
     44 H23         0.4744   -0.3295   -0.8281 H         1 <0>         0.4289
     45 H24        -4.6661   -4.1989   -1.0067 H         1 <0>         0.4284
@<TRIPOS>BOND
     1    1    2 1
     2    1   22 1
     3    1   23 1
     4    1   24 1
     5    2    3 1
     6    2    4 1
     7    2   44 1
     8    3   25 1
     9    3   26 1
    10    3   27 1
    11    4    5 1
    12    4   28 1
    13    4   29 1
    14    5    6 1
    15    5   30 1
    16    5   31 1
    17    6    7 1
    18    6   32 1
    19    6   33 1
    20    7    8 1
    21    7   34 1
    22    7   35 1
    23    8    9 1
    24    8   36 1
    25    8   45 1
    26    9   10 1
    27    9   37 1
    28    9   38 1
    29   10   14 1
    30   10   11 2
    31   11   12 1
    32   11   39 1
    33   12   13 1
    34   13   14 2
    35   13   15 1
    36   15   20 ar
    37   15   16 ar
    38   16   17 ar
    39   16   40 1
    40   17   18 ar
    41   17   41 1
    42   18   19 ar
    43   18   21 1
    44   19   20 ar
    45   19   42 1
    46   20   43 1
@<TRIPOS>MOLECULE
ZINC35161635
   42    43     0     0     0
SMALL
USER_CHARGES

@<TRIPOS>ATOM
      1 C1         -0.0187    1.5258    0.0104 C.3       1 <0>        -0.1576
      2 C2          0.0021   -0.0041    0.0020 C.3       1 <0>        -0.1266
      3 C3         -1.4333   -0.5336    0.0129 C.3       1 <0>        -0.1222
      4 C4         -1.4126   -2.0635    0.0045 C.3       1 <0>        -0.1184
      5 C5         -2.8479   -2.5931    0.0153 C.3       1 <0>        -0.1499
      6 C6         -2.8272   -4.1229    0.0069 C.3       1 <0>        -0.0096
      7 N1         -4.2054   -4.6314    0.0173 N.4       1 <0>        -0.5084
      8 C7         -4.1854   -6.1002    0.0093 C.3       1 <0>         0.0781
      9 C8         -5.5992   -6.6218    0.0200 C.2       1 <0>        -0.0088
     10 C9         -6.2118   -6.9522   -1.1476 C.2       1 <0>        -0.1817
     11 S1         -7.8071   -7.4888   -0.5431 S.3       1 <0>         0.0968
     12 C10        -7.4849   -7.2152    1.1943 C.2       1 <0>         0.1840
     13 N2         -6.2392   -6.7630    1.1572 N.2       1 <0>        -0.5078
     14 C11        -8.3678   -7.4385    2.3589 C.ar      1 <0>        -0.0549
     15 C12        -7.9145   -7.1496    3.6469 C.ar      1 <0>        -0.0331
     16 C13        -8.7422   -7.3597    4.7299 C.ar      1 <0>        -0.1555
     17 C14       -10.0218   -7.8572    4.5409 C.ar      1 <0>         0.1392
     18 C15       -10.4769   -8.1458    3.2641 C.ar      1 <0>        -0.1499
     19 C16        -9.6595   -7.9335    2.1737 C.ar      1 <0>        -0.0533
     20 F1        -10.8283   -8.0621    5.6053 F         1 <0>        -0.1240
     21 H1          1.0039    1.9031    0.0027 H         1 <0>         0.0590
     22 H2         -0.5459    1.8868   -0.8726 H         1 <0>         0.0552
     23 H3         -0.5289    1.8773    0.9072 H         1 <0>         0.0553
     24 H4          0.5123   -0.3556   -0.8948 H         1 <0>         0.0634
     25 H5          0.5293   -0.3651    0.8851 H         1 <0>         0.0635
     26 H6         -1.9435   -0.1821    0.9097 H         1 <0>         0.0660
     27 H7         -1.9605   -0.1726   -0.8702 H         1 <0>         0.0658
     28 H8         -0.9024   -2.4150   -0.8923 H         1 <0>         0.0742
     29 H9         -0.8854   -2.4246    0.8875 H         1 <0>         0.0744
     30 H10        -3.3581   -2.2415    0.9121 H         1 <0>         0.0871
     31 H11        -3.3751   -2.2320   -0.8677 H         1 <0>         0.0869
     32 H12        -2.3170   -4.4744   -0.8899 H         1 <0>         0.1333
     33 H13        -2.3000   -4.4840    0.8900 H         1 <0>         0.1334
     34 H14        -4.6776   -4.3060    0.8475 H         1 <0>         0.4311
     35 H15        -3.6752   -6.4517   -0.8875 H         1 <0>         0.1459
     36 H16        -3.6582   -6.4613    0.8923 H         1 <0>         0.1453
     37 H17        -5.8386   -6.9037   -2.1600 H         1 <0>         0.2107
     38 H18        -6.9172   -6.7625    3.7953 H         1 <0>         0.1453
     39 H19        -8.3924   -7.1365    5.7270 H         1 <0>         0.1502
     40 H20       -11.4750   -8.5333    3.1223 H         1 <0>         0.1520
     41 H21       -10.0169   -8.1540    1.1787 H         1 <0>         0.1394
     42 H22        -4.6934   -4.2971   -0.8001 H         1 <0>         0.4262
@<TRIPOS>BOND
     1    1    2 1
     2    1   21 1
     3    1   22 1
     4    1   23 1
     5    2    3 1
     6    2   24 1
     7    2   25 1
     8    3    4 1
     9    3   26 1
    10    3   27 1
    11    4    5 1
    12    4   28 1
    13    4   29 1
    14    5    6 1
    15    5   30 1
    16    5   31 1
    17    6    7 1
    18    6   32 1
    19    6   33 1
    20    7    8 1
    21    7   34 1
    22    7   42 1
    23    8    9 1
    24    8   35 1
    25    8   36 1
    26    9   13 1
    27    9   10 2
    28   10   11 1
    29   10   37 1
    30   11   12 1
    31   12   13 2
    32   12   14 1
    33   14   19 ar
    34   14   15 ar
    35   15   16 ar
    36   15   38 1
    37   16   17 ar
    38   16   39 1
    39   17   18 ar
    40   17   20 1
    41   18   19 ar
    42   18   40 1
    43   19   41 1
@<TRIPOS>MOLECULE
ZINC81046467
   42    43     0     0     0
SMALL
USER_CHARGES

@<TRIPOS>ATOM
      1 C1         -0.0187    1.5258    0.0104 C.3       1 <0>        -0.1724
      2 C2          0.0021   -0.0041    0.0020 C.3       1 <0>        -0.1126
      3 H1         -1.0205   -0.3814    0.0098 H         1 <0>         0.0949
      4 C3          0.7182   -0.4975   -1.2568 C.3       1 <0>        -0.0120
      5 N1         -0.0570   -0.1128   -2.4438 N.4       1 <0>        -0.5083
      6 C4          0.6305   -0.5866   -3.6524 C.3       1 <0>         0.0776
      7 C5         -0.1648   -0.1919   -4.8701 C.2       1 <0>        -0.0083
      8 C6          0.1411    0.9491   -5.5425 C.2       1 <0>        -0.1818
      9 S1         -1.0848    0.9038   -6.8440 S.3       1 <0>         0.0969
     10 C7         -1.8687   -0.6258   -6.3516 C.2       1 <0>         0.1838
     11 N2         -1.1505   -0.9522   -5.2862 N.2       1 <0>        -0.5073
     12 C8         -3.0077   -1.3378   -6.9695 C.ar      1 <0>        -0.0547
     13 C9         -3.4723   -2.5309   -6.4140 C.ar      1 <0>        -0.0331
     14 C10        -4.5350   -3.1910   -6.9943 C.ar      1 <0>        -0.1555
     15 C11        -5.1411   -2.6720   -8.1274 C.ar      1 <0>         0.1391
     16 C12        -4.6837   -1.4876   -8.6830 C.ar      1 <0>        -0.1499
     17 C13        -3.6257   -0.8163   -8.1070 C.ar      1 <0>        -0.0534
     18 F1         -6.1813   -3.3231   -8.6925 F         1 <0>        -0.1240
     19 C14         0.7421   -0.5109    1.2415 C.3       1 <0>        -0.0858
     20 C15         0.0259   -0.0175    2.5003 C.3       1 <0>        -0.1561
     21 C16         0.7628   -2.0407    1.2331 C.3       1 <0>        -0.1615
     22 H2          1.0039    1.9031    0.0027 H         1 <0>         0.0733
     23 H3         -0.5459    1.8868   -0.8726 H         1 <0>         0.0506
     24 H4         -0.5289    1.8773    0.9072 H         1 <0>         0.0870
     25 H5          1.7103   -0.0491   -1.3098 H         1 <0>         0.1344
     26 H6          0.8116   -1.5829   -1.2198 H         1 <0>         0.1374
     27 H7         -0.9754   -0.5279   -2.3947 H         1 <0>         0.4306
     28 H8          1.6226   -0.1381   -3.7054 H         1 <0>         0.1459
     29 H9          0.7239   -1.6719   -3.6155 H         1 <0>         0.1456
     30 H10         0.9108    1.6805   -5.3453 H         1 <0>         0.2106
     31 H11        -3.0002   -2.9366   -5.5314 H         1 <0>         0.1454
     32 H12        -4.8953   -4.1143   -6.5652 H         1 <0>         0.1502
     33 H13        -5.1596   -1.0874   -9.5661 H         1 <0>         0.1519
     34 H14        -3.2731    0.1091   -8.5380 H         1 <0>         0.1394
     35 H15         1.7647   -0.1336    1.2338 H         1 <0>         0.0823
     36 H16         0.0111    1.0724    2.5063 H         1 <0>         0.0630
     37 H17        -0.9967   -0.3948    2.5081 H         1 <0>         0.0599
     38 H18         0.5531   -0.3786    3.3834 H         1 <0>         0.0669
     39 H19         1.2730   -2.3923    0.3363 H         1 <0>         0.0548
     40 H20         1.2900   -2.4018    2.1162 H         1 <0>         0.0696
     41 H21        -0.2598   -2.4180    1.2409 H         1 <0>         0.0617
     42 H22        -0.1435    0.8919   -2.4780 H         1 <0>         0.4240
@<TRIPOS>BOND
     1    1    2 1
     2    1   22 1
     3    1   23 1
     4    1   24 1
     5    2    3 1
     6    2    4 1
     7    2   19 1
     8    4    5 1
     9    4   25 1
    10    4   26 1
    11    5    6 1
    12    5   27 1
    13    5   42 1
    14    6    7 1
    15    6   28 1
    16    6   29 1
    17    7   11 1
    18    7    8 2
    19    8    9 1
    20    8   30 1
    21    9   10 1
    22   10   11 2
    23   10   12 1
    24   12   17 ar
    25   12   13 ar
    26   13   14 ar
    27   13   31 1
    28   14   15 ar
    29   14   32 1
    30   15   16 ar
    31   15   18 1
    32   16   17 ar
    33   16   33 1
    34   17   34 1
    35   19   20 1
    36   19   21 1
    37   19   35 1
    38   20   36 1
    39   20   37 1
    40   20   38 1
    41   21   39 1
    42   21   40 1
    43   21   41 1
@<TRIPOS>MOLECULE
ZINC81046468
   42    43     0     0     0
SMALL
USER_CHARGES

@<TRIPOS>ATOM
      1 C1         -0.0187    1.5258    0.0104 C.3       1 <0>        -0.1726
      2 C2          0.0021   -0.0041    0.0020 C.3       1 <0>        -0.1120
      3 H1         -1.0205   -0.3814    0.0098 H         1 <0>         0.0946
      4 C3          0.7421   -0.5109    1.2415 C.3       1 <0>        -0.0121
      5 N1         -0.0103   -0.1391    2.4472 N.4       1 <0>        -0.5085
      6 C4          0.7001   -0.6257    3.6373 C.3       1 <0>         0.0775
      7 C5         -0.0717   -0.2443    4.8741 C.2       1 <0>        -0.0084
      8 C6         -0.9383   -1.1283    5.4354 C.2       1 <0>        -0.1814
      9 S1         -1.5400   -0.1678    6.8188 S.3       1 <0>         0.0968
     10 C7         -0.5741    1.3026    6.4994 C.2       1 <0>         0.1838
     11 N2          0.0957    0.9402    5.4143 N.2       1 <0>        -0.5075
     12 C8         -0.5302    2.5773    7.2472 C.ar      1 <0>        -0.0546
     13 C9          0.3004    3.6132    6.8172 C.ar      1 <0>        -0.0332
     14 C10         0.3376    4.8001    7.5185 C.ar      1 <0>        -0.1555
     15 C11        -0.4475    4.9651    8.6486 C.ar      1 <0>         0.1391
     16 C12        -1.2740    3.9397    9.0798 C.ar      1 <0>        -0.1499
     17 C13        -1.3234    2.7509    8.3823 C.ar      1 <0>        -0.0533
     18 F1         -0.4066    6.1295    9.3324 F         1 <0>        -0.1240
     19 C14         0.7182   -0.4975   -1.2568 C.3       1 <0>        -0.0862
     20 C15         0.7390   -2.0273   -1.2652 C.3       1 <0>        -0.1611
     21 C16        -0.0218    0.0093   -2.4963 C.3       1 <0>        -0.1560
     22 H2          1.0039    1.9031    0.0027 H         1 <0>         0.0735
     23 H3         -0.5459    1.8868   -0.8726 H         1 <0>         0.0868
     24 H4         -0.5289    1.8773    0.9072 H         1 <0>         0.0510
     25 H5          0.8346   -1.5958    1.1912 H         1 <0>         0.1371
     26 H6          1.7350   -0.0630    1.2804 H         1 <0>         0.1346
     27 H7         -0.0960    0.8652    2.4938 H         1 <0>         0.4292
     28 H8          0.7927   -1.7106    3.5869 H         1 <0>         0.1462
     29 H9          1.6931   -0.1778    3.6761 H         1 <0>         0.1454
     30 H10        -1.1932   -2.1325    5.1303 H         1 <0>         0.2108
     31 H11         0.9132    3.4854    5.9371 H         1 <0>         0.1453
     32 H12         0.9800    5.6024    7.1866 H         1 <0>         0.1502
     33 H13        -1.8838    4.0733    9.9611 H         1 <0>         0.1519
     34 H14        -1.9715    1.9542    8.7164 H         1 <0>         0.1394
     35 H15         1.7408   -0.1202   -1.2645 H         1 <0>         0.0824
     36 H16         1.2661   -2.3884   -0.3821 H         1 <0>         0.0546
     37 H17        -0.2836   -2.4046   -1.2575 H         1 <0>         0.0614
     38 H18         1.2492   -2.3788   -2.1620 H         1 <0>         0.0696
     39 H19        -0.0366    1.0992   -2.4903 H         1 <0>         0.0632
     40 H20         0.4884   -0.3422   -3.3931 H         1 <0>         0.0669
     41 H21        -1.0444   -0.3679   -2.4886 H         1 <0>         0.0598
     42 H22        -0.9295   -0.5537    2.4112 H         1 <0>         0.4255
@<TRIPOS>BOND
     1    1    2 1
     2    1   22 1
     3    1   23 1
     4    1   24 1
     5    2    3 1
     6    2    4 1
     7    2   19 1
     8    4    5 1
     9    4   25 1
    10    4   26 1
    11    5    6 1
    12    5   27 1
    13    5   42 1
    14    6    7 1
    15    6   28 1
    16    6   29 1
    17    7   11 1
    18    7    8 2
    19    8    9 1
    20    8   30 1
    21    9   10 1
    22   10   11 2
    23   10   12 1
    24   12   17 ar
    25   12   13 ar
    26   13   14 ar
    27   13   31 1
    28   14   15 ar
    29   14   32 1
    30   15   16 ar
    31   15   18 1
    32   16   17 ar
    33   16   33 1
    34   17   34 1
    35   19   20 1
    36   19   21 1
    37   19   35 1
    38   20   36 1
    39   20   37 1
    40   20   38 1
    41   21   39 1
    42   21   40 1
    43   21   41 1
@<TRIPOS>MOLECULE
ZINC88454822
   37    39     0     0     0
SMALL
USER_CHARGES

@<TRIPOS>ATOM
      1 C1         -0.0169    1.3914    0.0097 C.ar      1 <0>        -0.0533
      2 C2          1.1695    2.0947    0.0021 C.ar      1 <0>        -0.1500
      3 C3          2.3789    1.4182   -0.0135 C.ar      1 <0>         0.1392
      4 C4          2.4033    0.0326   -0.0212 C.ar      1 <0>        -0.1555
      5 C5          1.2228   -0.6804   -0.0137 C.ar      1 <0>        -0.0330
      6 C6          0.0021   -0.0041    0.0020 C.ar      1 <0>        -0.0549
      7 C7         -1.2666   -0.7632    0.0105 C.2       1 <0>         0.1840
      8 N1         -1.4625   -2.0744    0.0109 N.2       1 <0>        -0.5079
      9 C8         -2.6728   -2.5824    0.0199 C.2       1 <0>        -0.0087
     10 C9         -3.7535   -1.7580    0.0291 C.2       1 <0>        -0.1817
     11 S1         -2.9497   -0.1603    0.0311 S.3       1 <0>         0.0970
     12 C10        -2.8638   -4.0772    0.0196 C.3       1 <0>         0.0784
     13 N2         -2.8166   -4.5766   -1.3611 N.4       1 <0>        -0.5086
     14 C11        -3.0028   -6.0337   -1.3614 C.3       1 <0>        -0.0058
     15 C12        -2.9536   -6.5538   -2.7995 C.3       1 <0>        -0.1162
     16 C13        -3.1476   -8.0715   -2.7998 C.3       1 <0>        -0.1680
     17 C14        -1.9874   -8.9319   -3.3043 C.3       1 <0>        -0.1747
     18 C15        -3.2474   -8.7706   -4.1571 C.3       1 <0>        -0.1692
     19 F1          3.5381    2.1119   -0.0217 F         1 <0>        -0.1240
     20 H1         -0.9588    1.9196    0.0260 H         1 <0>         0.1394
     21 H2          1.1559    3.1746    0.0081 H         1 <0>         0.1519
     22 H3          3.3485   -0.4898   -0.0334 H         1 <0>         0.1502
     23 H4          1.2429   -1.7602   -0.0204 H         1 <0>         0.1454
     24 H5         -4.8058   -2.0005    0.0368 H         1 <0>         0.2108
     25 H6         -2.0705   -4.5450    0.6025 H         1 <0>         0.1456
     26 H7         -3.8305   -4.3200    0.4609 H         1 <0>         0.1462
     27 H8         -3.5510   -4.1435   -1.9007 H         1 <0>         0.4263
     28 H9         -2.2095   -6.5016   -0.7785 H         1 <0>         0.1351
     29 H10        -3.9695   -6.2766   -0.9201 H         1 <0>         0.1343
     30 H11        -3.7470   -6.0860   -3.3824 H         1 <0>         0.0898
     31 H12        -1.9870   -6.3110   -3.2408 H         1 <0>         0.0876
     32 H13        -3.7512   -8.4685   -1.9836 H         1 <0>         0.1149
     33 H14        -1.0859   -8.4167   -3.6360 H         1 <0>         0.0986
     34 H15        -1.8274   -9.8951   -2.8199 H         1 <0>         0.1024
     35 H16        -3.9164   -9.6278   -4.2337 H         1 <0>         0.1038
     36 H17        -3.1749   -8.1494   -5.0498 H         1 <0>         0.0994
     37 H18        -1.9218   -4.3518   -1.7696 H         1 <0>         0.4311
@<TRIPOS>BOND
     1    1    6 ar
     2    1    2 ar
     3    1   20 1
     4    2    3 ar
     5    2   21 1
     6    3    4 ar
     7    3   19 1
     8    4    5 ar
     9    4   22 1
    10    5    6 ar
    11    5   23 1
    12    6    7 1
    13    7   11 1
    14    7    8 2
    15    8    9 1
    16    9   10 2
    17    9   12 1
    18   10   11 1
    19   10   24 1
    20   12   13 1
    21   12   25 1
    22   12   26 1
    23   13   14 1
    24   13   27 1
    25   13   37 1
    26   14   15 1
    27   14   28 1
    28   14   29 1
    29   15   16 1
    30   15   30 1
    31   15   31 1
    32   16   18 1
    33   16   17 1
    34   16   32 1
    35   17   18 1
    36   17   33 1
    37   17   34 1
    38   18   35 1
    39   18   36 1
@<TRIPOS>MOLECULE
ZINC11568397
   26    27     0     0     0
SMALL
USER_CHARGES
(1S)-1-[2-(4-pyridyl)thiazol-4-yl]ethanamine
@<TRIPOS>ATOM
      1 C1         -2.0497   -4.7106   -1.1850 C.3       1 <0>        -0.1763
      2 C2         -2.8033   -4.1178    0.0073 C.3       1 <0>         0.1139
      3 H1         -2.4035   -4.5328    0.9325 H         1 <0>         0.1597
      4 C3         -2.6343   -2.6203    0.0141 C.2       1 <0>         0.0376
      5 C4         -3.7281   -1.8110    0.0293 C.2       1 <0>        -0.2559
      6 S1         -2.9472   -0.2020    0.0381 S.3       1 <0>         0.1244
      7 C5         -1.2558   -0.7811    0.0103 C.2       1 <0>         0.1821
      8 N1         -1.4332   -2.0948    0.0050 N.2       1 <0>        -0.4903
      9 C6          0.0021   -0.0041    0.0020 C.ar      1 <0>         0.0051
     10 C7         -0.0169    1.3955    0.0097 C.ar      1 <0>        -0.1420
     11 C8          1.1803    2.0805    0.0020 C.ar      1 <0>         0.1132
     12 N2          2.3306    1.4344   -0.0129 N.ar      1 <0>        -0.4610
     13 C9          2.3934    0.1165   -0.0202 C.ar      1 <0>         0.1094
     14 C10         1.2450   -0.6476   -0.0133 C.ar      1 <0>        -0.1189
     15 H2         -2.1719   -5.7937   -1.1900 H         1 <0>         0.0891
     16 H3         -2.4495   -4.2956   -2.1103 H         1 <0>         0.0806
     17 H4         -0.9909   -4.4648   -1.1043 H         1 <0>         0.1147
     18 H5         -4.7769   -2.0687    0.0383 H         1 <0>         0.2008
     19 H6         -0.9548    1.9310    0.0171 H         1 <0>         0.1419
     20 H7          1.1761    3.1605    0.0074 H         1 <0>         0.1716
     21 H8          3.3572   -0.3707   -0.0320 H         1 <0>         0.1708
     22 H9          1.3040   -1.7259   -0.0193 H         1 <0>         0.1492
     23 H10        -4.3700   -5.4483   -0.1082 H         1 <0>         0.4466
     24 H11        -4.7599   -4.0148    0.6395 H         1 <0>         0.4382
     25 N3         -4.2355   -4.4387   -0.1240 N.4       1 <0>        -0.6441
     26 H12        -4.5839   -4.0683   -1.0160 H         1 <0>         0.4394
@<TRIPOS>BOND
     1    1    2 1
     2    1   15 1
     3    1   16 1
     4    1   17 1
     5    2    3 1
     6    2    4 1
     7    2   25 1
     8    4    8 1
     9    4    5 2
    10    5    6 1
    11    5   18 1
    12    6    7 1
    13    7    8 2
    14    7    9 1
    15    9   14 ar
    16    9   10 ar
    17   10   11 ar
    18   10   19 1
    19   11   12 ar
    20   11   20 1
    21   12   13 ar
    22   13   14 ar
    23   13   21 1
    24   14   22 1
    25   23   25 1
    26   24   25 1
    27   25   26 1
@<TRIPOS>MOLECULE
ZINC11595465
   30    31     0     0     0
SMALL
USER_CHARGES
(2R)-1-[2-(4-chlorophenyl)thiazol-4-yl]propan-2-amine
@<TRIPOS>ATOM
      1 C1         -0.0127    1.0858    0.0080 C.3       1 <0>        -0.1810
      2 C2         -0.7288    1.5792    1.2668 C.3       1 <0>         0.0380
      3 H1         -1.7514    1.2020    1.2746 H         1 <0>         0.1476
      4 C3         -0.7496    3.1091    1.2752 C.3       1 <0>        -0.0675
      5 C4         -1.5601    3.5940    2.4495 C.2       1 <0>         0.0144
      6 C5         -1.0113    4.4559    3.3462 C.2       1 <0>        -0.2047
      7 S1         -2.3819    4.6760    4.4738 S.3       1 <0>         0.0682
      8 C6         -3.5300    3.5917    3.6352 C.2       1 <0>         0.1750
      9 N1         -2.7952    3.1808    2.6112 N.2       1 <0>        -0.5098
     10 C7         -4.9235    3.2462    3.9888 C.ar      1 <0>        -0.0359
     11 C8         -5.6540    2.3711    3.1838 C.ar      1 <0>        -0.0529
     12 C9         -6.9521    2.0487    3.5213 C.ar      1 <0>        -0.1115
     13 C10        -7.5339    2.5997    4.6507 C.ar      1 <0>        -0.0076
     14 C11        -6.8156    3.4727    5.4504 C.ar      1 <0>        -0.1062
     15 C12        -5.5151    3.7984    5.1257 C.ar      1 <0>        -0.0723
     16 Cl1        -9.1703    2.1949    5.0652 Cl        1 <0>        -0.0443
     17 H2          0.0021   -0.0041    0.0020 H         1 <0>         0.0843
     18 H3          1.0099    1.4631    0.0003 H         1 <0>         0.0825
     19 H4         -0.5399    1.4469   -0.8751 H         1 <0>         0.1081
     20 H5          0.2699    3.4858    1.3571 H         1 <0>         0.1048
     21 H6         -1.1977    3.4715    0.3500 H         1 <0>         0.1258
     22 H7         -0.0222    4.8890    3.3700 H         1 <0>         0.2055
     23 H8         -5.2028    1.9442    2.3003 H         1 <0>         0.1439
     24 H9         -7.5171    1.3684    2.9014 H         1 <0>         0.1469
     25 H10        -7.2747    3.8997    6.3298 H         1 <0>         0.1486
     26 H11        -4.9560    4.4796    5.7500 H         1 <0>         0.1382
     27 H12        -0.0466    0.0853    2.5082 H         1 <0>         0.4386
     28 H13         0.9328    1.4290    2.4730 H         1 <0>         0.4333
     29 N2         -0.0324    1.1033    2.4750 N.4       1 <0>        -0.6451
     30 H14        -0.5087    1.4723    3.3065 H         1 <0>         0.4351
@<TRIPOS>BOND
     1    1    2 1
     2    1   17 1
     3    1   18 1
     4    1   19 1
     5    2    3 1
     6    2    4 1
     7    2   29 1
     8    4    5 1
     9    4   20 1
    10    4   21 1
    11    5    9 1
    12    5    6 2
    13    6    7 1
    14    6   22 1
    15    7    8 1
    16    8    9 2
    17    8   10 1
    18   10   15 ar
    19   10   11 ar
    20   11   12 ar
    21   11   23 1
    22   12   13 ar
    23   12   24 1
    24   13   14 ar
    25   13   16 1
    26   14   15 ar
    27   14   25 1
    28   15   26 1
    29   27   29 1
    30   28   29 1
    31   29   30 1
@<TRIPOS>MOLECULE
ZINC04323645
   27    29     0     0     0
SMALL
USER_CHARGES

@<TRIPOS>ATOM
      1 C1         -0.0168    1.3894    0.0097 C.ar      1 <0>        -0.0730
      2 C2          1.1701    2.0933    0.0021 C.ar      1 <0>        -0.1112
      3 C3          2.3782    1.4174   -0.0135 C.ar      1 <0>        -0.0282
      4 C4          2.4023    0.0333   -0.0216 C.ar      1 <0>        -0.1092
      5 C5          1.2209   -0.6797   -0.0142 C.ar      1 <0>        -0.0920
      6 C6          0.0021   -0.0041    0.0020 C.ar      1 <0>        -0.0238
      7 C7         -1.2711   -0.7657    0.0106 C.2       1 <0>         0.0975
      8 C8         -1.2572   -2.1376    0.0083 C.2       1 <0>        -0.1847
      9 S1         -3.0112   -2.4859    0.0219 S.3       1 <0>         0.0485
     10 C9         -3.5742   -0.7893    0.0291 C.2       1 <0>         0.1467
     11 N1         -2.4263   -0.1306    0.0259 N.2       1 <0>        -0.4795
     12 C10        -4.9556   -0.2619    0.0411 C.ar      1 <0>         0.0295
     13 C11        -5.1994    1.1164    0.0388 C.ar      1 <0>        -0.1265
     14 C12        -6.5039    1.5647    0.0498 C.ar      1 <0>         0.1054
     15 N2         -7.5125    0.7142    0.0623 N.ar      1 <0>        -0.4734
     16 C13        -7.3271   -0.5921    0.0650 C.ar      1 <0>         0.1075
     17 C14        -6.0558   -1.1272    0.0492 C.ar      1 <0>        -0.1486
     18 Cl1         3.8679    2.3087   -0.0235 Cl        1 <0>        -0.0652
     19 H1         -0.9588    1.9175    0.0260 H         1 <0>         0.1422
     20 H2          1.1565    3.1732    0.0081 H         1 <0>         0.1380
     21 H3          3.3473   -0.4894   -0.0342 H         1 <0>         0.1390
     22 H4          1.2407   -1.7595   -0.0212 H         1 <0>         0.1348
     23 H5         -0.4190   -2.8187    0.0005 H         1 <0>         0.2057
     24 H6         -4.3786    1.8183    0.0289 H         1 <0>         0.1481
     25 H7         -6.7023    2.6263    0.0485 H         1 <0>         0.1660
     26 H8         -8.1824   -1.2514    0.0758 H         1 <0>         0.1661
     27 H9         -5.9116   -2.1975    0.0471 H         1 <0>         0.1403
@<TRIPOS>BOND
     1    1    6 ar
     2    1    2 ar
     3    1   19 1
     4    2    3 ar
     5    2   20 1
     6    3    4 ar
     7    3   18 1
     8    4    5 ar
     9    4   21 1
    10    5    6 ar
    11    5   22 1
    12    6    7 1
    13    7   11 1
    14    7    8 2
    15    8    9 1
    16    8   23 1
    17    9   10 1
    18   10   11 2
    19   10   12 1
    20   12   17 ar
    21   12   13 ar
    22   13   14 ar
    23   13   24 1
    24   14   15 ar
    25   14   25 1
    26   15   16 ar
    27   16   17 ar
    28   16   26 1
    29   17   27 1
@<TRIPOS>MOLECULE
ZINC11595468
   30    31     0     0     0
SMALL
USER_CHARGES
(2S)-1-[2-(4-chlorophenyl)thiazol-4-yl]propan-2-amine
@<TRIPOS>ATOM
      1 C1          0.7182   -0.4975   -1.2568 C.3       1 <0>        -0.1823
      2 C2          0.0021   -0.0041    0.0020 C.3       1 <0>         0.0425
      3 H1         -1.0205   -0.3814    0.0098 H         1 <0>         0.1353
      4 C3          0.7421   -0.5109    1.2415 C.3       1 <0>        -0.0674
      5 C4         -0.0298   -0.1295    2.4784 C.2       1 <0>         0.0206
      6 C5         -0.3977   -1.0847    3.3730 C.2       1 <0>        -0.1796
      7 S1         -1.2513   -0.0877    4.5879 S.3       1 <0>         0.1009
      8 C6         -1.0256    1.4881    3.7738 C.2       1 <0>         0.1694
      9 N1         -0.3433    1.1262    2.6964 N.2       1 <0>        -0.5525
     10 C7         -1.4742    2.8334    4.1924 C.ar      1 <0>        -0.0341
     11 C8         -1.1833    3.9462    3.4021 C.ar      1 <0>        -0.0617
     12 C9         -1.6082    5.1982    3.7955 C.ar      1 <0>        -0.1098
     13 C10        -2.3133    5.3533    4.9771 C.ar      1 <0>        -0.0077
     14 C11        -2.6007    4.2535    5.7678 C.ar      1 <0>        -0.1018
     15 C12        -2.1852    2.9960    5.3822 C.ar      1 <0>        -0.0697
     16 Cl1        -2.8386    6.9330    5.4694 Cl        1 <0>        -0.0412
     17 H2          1.7408   -0.1202   -1.2645 H         1 <0>         0.0830
     18 H3          0.7330   -1.5874   -1.2628 H         1 <0>         0.1063
     19 H4          0.1910   -0.1364   -2.1398 H         1 <0>         0.0842
     20 H5          0.8346   -1.5958    1.1912 H         1 <0>         0.1269
     21 H6          1.7350   -0.0630    1.2804 H         1 <0>         0.1050
     22 H7         -0.2229   -2.1503    3.3550 H         1 <0>         0.2091
     23 H8         -0.6296    3.8270    2.4825 H         1 <0>         0.1346
     24 H9         -1.3866    6.0597    3.1830 H         1 <0>         0.1473
     25 H10        -3.1510    4.3805    6.6884 H         1 <0>         0.1504
     26 H11        -2.4093    2.1389    6.0000 H         1 <0>         0.1405
     27 H12         0.9191    1.8392    0.0032 H         1 <0>         0.4300
     28 H13        -0.5563    1.8234   -0.7642 H         1 <0>         0.4298
     29 N2         -0.0294    1.4689    0.0323 N.4       1 <0>        -0.6470
     30 H14        -0.4837    1.7790    0.8993 H         1 <0>         0.4387
@<TRIPOS>BOND
     1    1    2 1
     2    1   17 1
     3    1   18 1
     4    1   19 1
     5    2    3 1
     6    2    4 1
     7    2   29 1
     8    4    5 1
     9    4   20 1
    10    4   21 1
    11    5    9 1
    12    5    6 2
    13    6    7 1
    14    6   22 1
    15    7    8 1
    16    8    9 2
    17    8   10 1
    18   10   15 ar
    19   10   11 ar
    20   11   12 ar
    21   11   23 1
    22   12   13 ar
    23   12   24 1
    24   13   14 ar
    25   13   16 1
    26   14   15 ar
    27   14   25 1
    28   15   26 1
    29   27   29 1
    30   28   29 1
    31   29   30 1
@<TRIPOS>MOLECULE
ZINC11568396
   26    27     0     0     0
SMALL
USER_CHARGES
(1R)-1-[2-(4-pyridyl)thiazol-4-yl]ethanamine
@<TRIPOS>ATOM
      1 C1         -0.7527    1.5927   -1.2315 C.3       1 <0>        -0.1788
      2 C2         -0.0127    1.0858    0.0080 C.3       1 <0>         0.1216
      3 H1          0.0021   -0.0041    0.0020 H         1 <0>         0.1554
      4 C3         -0.7181    1.5718    1.2479 C.2       1 <0>        -0.0110
      5 C4         -1.1251    0.6821    2.1937 C.2       1 <0>        -0.1701
      6 S1         -1.8693    1.7871    3.3869 S.3       1 <0>         0.1170
      7 C5         -1.5582    3.3075    2.4988 C.2       1 <0>         0.1673
      8 N1         -0.9360    2.8532    1.4200 N.2       1 <0>        -0.5035
      9 C6         -1.8983    4.6976    2.8702 C.ar      1 <0>         0.0099
     10 C7         -1.5609    5.7686    2.0345 C.ar      1 <0>        -0.1243
     11 C8         -1.9012    7.0491    2.4181 C.ar      1 <0>         0.1092
     12 N2         -2.5266    7.2711    3.5585 N.ar      1 <0>        -0.4625
     13 C9         -2.8589    6.2913    4.3773 C.ar      1 <0>         0.1150
     14 C10        -2.5614    4.9799    4.0701 C.ar      1 <0>        -0.1435
     15 H2         -0.2425    1.2411   -2.1283 H         1 <0>         0.0874
     16 H3         -1.7753    1.2154   -1.2238 H         1 <0>         0.1035
     17 H4         -0.7675    2.6825   -1.2255 H         1 <0>         0.0895
     18 H5         -1.0261   -0.3931    2.2172 H         1 <0>         0.2132
     19 H6         -1.0451    5.5946    1.1016 H         1 <0>         0.1460
     20 H7         -1.6485    7.8817    1.7784 H         1 <0>         0.1694
     21 H8         -3.3703    6.5192    5.3008 H         1 <0>         0.1715
     22 H9         -2.8364    4.1828    4.7451 H         1 <0>         0.1422
     23 H10         1.8559    1.3269    0.8378 H         1 <0>         0.4365
     24 H11         1.8599    1.2820   -0.8246 H         1 <0>         0.4398
     25 N3          1.3609    1.6192   -0.0031 N.4       1 <0>        -0.6429
     26 H12         1.3244    2.6449   -0.0309 H         1 <0>         0.4422
@<TRIPOS>BOND
     1    1    2 1
     2    1   15 1
     3    1   16 1
     4    1   17 1
     5    2    3 1
     6    2    4 1
     7    2   25 1
     8    4    8 1
     9    4    5 2
    10    5    6 1
    11    5   18 1
    12    6    7 1
    13    7    8 2
    14    7    9 1
    15    9   14 ar
    16    9   10 ar
    17   10   11 ar
    18   10   19 1
    19   11   12 ar
    20   11   20 1
    21   12   13 ar
    22   13   14 ar
    23   13   21 1
    24   14   22 1
    25   23   25 1
    26   24   25 1
    27   25   26 1
@<TRIPOS>MOLECULE
ZINC40999687
   33    34     0     0     0
SMALL
USER_CHARGES

@<TRIPOS>ATOM
      1 C1         -0.0187    1.5258    0.0104 C.3       1 <0>        -0.1840
      2 C2          0.0021   -0.0041    0.0020 C.3       1 <0>         0.0246
      3 C3          0.7421   -0.5109    1.2415 C.3       1 <0>        -0.1856
      4 N1         -1.3761   -0.5125    0.0124 N.4       1 <0>        -0.5068
      5 C4         -1.3591   -1.9758   -0.1163 C.3       1 <0>         0.0747
      6 C5         -2.7729   -2.4974   -0.1056 C.2       1 <0>        -0.0104
      7 C6         -3.4208   -2.7314   -1.2770 C.2       1 <0>        -0.1882
      8 S1         -4.9986   -3.3160   -0.6707 S.3       1 <0>         0.1338
      9 C7         -4.6240   -3.1852    1.0727 C.2       1 <0>         0.1606
     10 N2         -3.3787   -2.7315    1.0355 N.2       1 <0>        -0.4914
     11 C8         -5.4720   -3.5030    2.2406 C.ar      1 <0>        -0.1083
     12 C9         -4.9804   -3.3204    3.5360 C.ar      1 <0>         0.1798
     13 C10        -5.7795   -3.6199    4.6232 C.ar      1 <0>        -0.1629
     14 C11        -7.0626   -4.0996    4.4316 C.ar      1 <0>        -0.0272
     15 C12        -7.5562   -4.2834    3.1527 C.ar      1 <0>        -0.1566
     16 C13        -6.7717   -3.9821    2.0554 C.ar      1 <0>         0.1572
     17 F1         -7.2578   -4.1562    0.8069 F         1 <0>        -0.1157
     18 F2         -3.7270   -2.8528    3.7250 F         1 <0>        -0.1099
     19 H1          1.0039    1.9031    0.0027 H         1 <0>         0.1079
     20 H2         -0.5459    1.8868   -0.8726 H         1 <0>         0.0814
     21 H3         -0.5289    1.8773    0.9072 H         1 <0>         0.0813
     22 H4          0.5123   -0.3556   -0.8948 H         1 <0>         0.1403
     23 H5          0.7568   -1.6008    1.2356 H         1 <0>         0.0818
     24 H6          1.7647   -0.1336    1.2338 H         1 <0>         0.1066
     25 H7          0.2319   -0.1594    2.1383 H         1 <0>         0.0827
     26 H8         -1.8225   -0.2564    0.8803 H         1 <0>         0.4294
     27 H9         -0.8769   -2.2525   -1.0538 H         1 <0>         0.1459
     28 H10        -0.8062   -2.4075    0.7180 H         1 <0>         0.1466
     29 H11        -3.0781   -2.6001   -2.2927 H         1 <0>         0.2115
     30 H12        -5.4010   -3.4793    5.6249 H         1 <0>         0.1573
     31 H13        -7.6822   -4.3322    5.2852 H         1 <0>         0.1587
     32 H14        -8.5589   -4.6590    3.0112 H         1 <0>         0.1592
     33 H15        -1.8879   -0.1129   -0.7598 H         1 <0>         0.4257
@<TRIPOS>BOND
     1    1    2 1
     2    1   19 1
     3    1   20 1
     4    1   21 1
     5    2    3 1
     6    2    4 1
     7    2   22 1
     8    3   23 1
     9    3   24 1
    10    3   25 1
    11    4    5 1
    12    4   26 1
    13    4   33 1
    14    5    6 1
    15    5   27 1
    16    5   28 1
    17    6   10 1
    18    6    7 2
    19    7    8 1
    20    7   29 1
    21    8    9 1
    22    9   10 2
    23    9   11 1
    24   11   16 ar
    25   11   12 ar
    26   12   13 ar
    27   12   18 1
    28   13   14 ar
    29   13   30 1
    30   14   15 ar
    31   14   31 1
    32   15   16 ar
    33   15   32 1
    34   16   17 1
@<TRIPOS>MOLECULE
ZINC70840755
   30    31     0     0     0
SMALL
USER_CHARGES

@<TRIPOS>ATOM
      1 C1         -0.0187    1.5258    0.0104 C.3       1 <0>        -0.1803
      2 C2          0.0021   -0.0041    0.0020 C.3       1 <0>         0.1157
      3 H1          0.5123   -0.3556   -0.8948 H         1 <0>         0.1512
      4 C3          0.7309   -0.5033    1.2229 C.2       1 <0>         0.0006
      5 C4          2.0863   -0.6103    1.2105 C.2       1 <0>        -0.1744
      6 S1          2.3834   -1.2290    2.8621 S.3       1 <0>         0.1098
      7 C5          0.6748   -1.2774    3.3870 C.2       1 <0>         0.1774
      8 N1          0.0590   -0.8303    2.3016 N.2       1 <0>        -0.5292
      9 C6          0.1032   -1.6979    4.6843 C.ar      1 <0>        -0.0084
     10 C7         -1.2775   -1.6633    4.8857 C.ar      1 <0>        -0.0786
     11 C8         -1.8059   -2.0566    6.0978 C.ar      1 <0>        -0.0877
     12 C9         -0.9709   -2.4850    7.1140 C.ar      1 <0>        -0.1207
     13 C10         0.4007   -2.5222    6.9218 C.ar      1 <0>         0.1120
     14 C11         0.9413   -2.1361    5.7097 C.ar      1 <0>        -0.1247
     15 F1          1.2105   -2.9413    7.9187 F         1 <0>        -0.1253
     16 N2         -1.3761   -0.5125    0.0124 N.4       1 <0>        -0.5006
     17 C12        -2.0500   -0.1262   -1.2343 C.3       1 <0>        -0.0523
     18 H2          1.0039    1.9031    0.0027 H         1 <0>         0.1065
     19 H3         -0.5459    1.8868   -0.8726 H         1 <0>         0.0902
     20 H4         -0.5289    1.8773    0.9072 H         1 <0>         0.0842
     21 H5          2.7887   -0.3847    0.4219 H         1 <0>         0.2112
     22 H6         -1.9313   -1.3288    4.0938 H         1 <0>         0.1389
     23 H7         -2.8742   -2.0295    6.2539 H         1 <0>         0.1477
     24 H8         -1.3897   -2.7915    8.0612 H         1 <0>         0.1495
     25 H9          2.0101   -2.1693    5.5584 H         1 <0>         0.1421
     26 H10        -1.3629   -1.5185    0.0898 H         1 <0>         0.4317
     27 H11        -3.0726   -0.5034   -1.2266 H         1 <0>         0.1288
     28 H12        -2.0643    0.9605   -1.3179 H         1 <0>         0.1257
     29 H13        -1.5132   -0.5489   -2.0836 H         1 <0>         0.1244
     30 H14        -1.8730   -0.1212    0.7986 H         1 <0>         0.4345
@<TRIPOS>BOND
     1    1    2 1
     2    1   18 1
     3    1   19 1
     4    1   20 1
     5    2    3 1
     6    2    4 1
     7    2   16 1
     8    4    8 1
     9    4    5 2
    10    5    6 1
    11    5   21 1
    12    6    7 1
    13    7    8 2
    14    7    9 1
    15    9   14 ar
    16    9   10 ar
    17   10   11 ar
    18   10   22 1
    19   11   12 ar
    20   11   23 1
    21   12   13 ar
    22   12   24 1
    23   13   14 ar
    24   13   15 1
    25   14   25 1
    26   16   17 1
    27   16   26 1
    28   16   30 1
    29   17   27 1
    30   17   28 1
    31   17   29 1
@<TRIPOS>MOLECULE
ZINC70840761
   30    31     0     0     0
SMALL
USER_CHARGES

@<TRIPOS>ATOM
      1 C1         -0.0187    1.5258    0.0104 C.3       1 <0>        -0.1802
      2 C2          0.0021   -0.0041    0.0020 C.3       1 <0>         0.1157
      3 H1          0.5123   -0.3556   -0.8948 H         1 <0>         0.1511
      4 C3         -1.4117   -0.5257    0.0127 C.2       1 <0>         0.0007
      5 C4         -2.0955   -0.6636   -1.1543 C.2       1 <0>        -0.1745
      6 S1         -3.6551   -1.2968   -0.5499 S.3       1 <0>         0.1098
      7 C5         -3.2272   -1.3085    1.1861 C.2       1 <0>         0.1775
      8 N1         -1.9831   -0.8526    1.1479 N.2       1 <0>        -0.5293
      9 C6         -4.0404   -1.7207    2.3503 C.ar      1 <0>        -0.0085
     10 C7         -3.5088   -1.6440    3.6386 C.ar      1 <0>        -0.0786
     11 C8         -4.2715   -2.0298    4.7215 C.ar      1 <0>        -0.0877
     12 C9         -5.5616   -2.4924    4.5337 C.ar      1 <0>        -0.1207
     13 C10        -6.0963   -2.5714    3.2580 C.ar      1 <0>         0.1120
     14 C11        -5.3438   -2.1823    2.1659 C.ar      1 <0>        -0.1246
     15 F1         -7.3568   -3.0245    3.0818 F         1 <0>        -0.1253
     16 N2          0.7126   -0.4907    1.1921 N.4       1 <0>        -0.5007
     17 C12         2.1220   -0.0825    1.1220 C.3       1 <0>        -0.0522
     18 H2          1.0039    1.9031    0.0027 H         1 <0>         0.0902
     19 H3         -0.5459    1.8868   -0.8726 H         1 <0>         0.1065
     20 H4         -0.5289    1.8773    0.9072 H         1 <0>         0.0842
     21 H5         -1.7835   -0.4498   -2.1659 H         1 <0>         0.2113
     22 H6         -2.5017   -1.2835    3.7874 H         1 <0>         0.1389
     23 H7         -3.8602   -1.9708    5.7183 H         1 <0>         0.1477
     24 H8         -6.1543   -2.7934    5.3849 H         1 <0>         0.1495
     25 H9         -5.7622   -2.2397    1.1719 H         1 <0>         0.1421
     26 H10         0.2896   -0.0986    2.0201 H         1 <0>         0.4345
     27 H11         2.6492   -0.4436    2.0051 H         1 <0>         0.1288
     28 H12         2.5788   -0.5061    0.2276 H         1 <0>         0.1244
     29 H13         2.1837    1.0050    1.0814 H         1 <0>         0.1257
     30 H14         0.6554   -1.4974    1.2298 H         1 <0>         0.4317
@<TRIPOS>BOND
     1    1    2 1
     2    1   18 1
     3    1   19 1
     4    1   20 1
     5    2    3 1
     6    2    4 1
     7    2   16 1
     8    4    8 1
     9    4    5 2
    10    5    6 1
    11    5   21 1
    12    6    7 1
    13    7    8 2
    14    7    9 1
    15    9   14 ar
    16    9   10 ar
    17   10   11 ar
    18   10   22 1
    19   11   12 ar
    20   11   23 1
    21   12   13 ar
    22   12   24 1
    23   13   14 ar
    24   13   15 1
    25   14   25 1
    26   16   17 1
    27   16   26 1
    28   16   30 1
    29   17   27 1
    30   17   28 1
    31   17   29 1
@<TRIPOS>MOLECULE
ZINC52139981
   33    34     0     0     0
SMALL
USER_CHARGES

@<TRIPOS>ATOM
      1 C1          1.0199    1.8166   -1.0355 C.3       1 <0>        -0.1902
      2 C2          0.7982    0.3160   -0.8360 C.3       1 <0>        -0.0093
      3 N1          1.3661   -0.0955    0.4547 N.4       1 <0>        -0.5092
      4 C3          1.1532   -1.5364    0.6463 C.3       1 <0>         0.0784
      5 C4          1.7358   -1.9585    1.9705 C.2       1 <0>        -0.0157
      6 C5          0.9420   -2.0298    3.0719 C.2       1 <0>        -0.1773
      7 S1          2.1282   -2.5634    4.2995 S.3       1 <0>         0.1018
      8 C6          3.5477   -2.6331    3.2145 C.2       1 <0>         0.1808
      9 N2          3.0090   -2.2633    2.0612 N.2       1 <0>        -0.4930
     10 C7          4.9453   -3.0070    3.5204 C.ar      1 <0>        -0.0160
     11 C8          5.5817   -2.4790    4.6443 C.ar      1 <0>        -0.1178
     12 C9          6.8875   -2.8330    4.9246 C.ar      1 <0>         0.1014
     13 C10         7.5638   -3.7100    4.0913 C.ar      1 <0>        -0.1158
     14 C11         6.9368   -4.2356    2.9764 C.ar      1 <0>        -0.0894
     15 C12         5.6309   -3.8938    2.6895 C.ar      1 <0>        -0.0425
     16 C13         4.9483   -4.4730    1.4772 C.3       1 <0>        -0.1130
     17 F1          7.5061   -2.3233    6.0121 F         1 <0>        -0.1275
     18 H1          2.0886    2.0307   -1.0240 H         1 <0>         0.0807
     19 H2          0.5986    2.1220   -1.9933 H         1 <0>         0.1083
     20 H3          0.5305    2.3663   -0.2315 H         1 <0>         0.0805
     21 H4         -0.2705    0.1019   -0.8476 H         1 <0>         0.1325
     22 H5          1.2876   -0.2336   -1.6401 H         1 <0>         0.1326
     23 H6          2.3554    0.1026    0.4655 H         1 <0>         0.4312
     24 H7          0.0845   -1.7505    0.6347 H         1 <0>         0.1457
     25 H8          1.6426   -2.0860   -0.1578 H         1 <0>         0.1451
     26 H9         -0.1125   -1.8215    3.1767 H         1 <0>         0.2109
     27 H10         5.0550   -1.7951    5.2934 H         1 <0>         0.1425
     28 H11         8.5847   -3.9837    4.3133 H         1 <0>         0.1492
     29 H12         7.4691   -4.9185    2.3308 H         1 <0>         0.1478
     30 H13         5.0373   -3.7772    0.6430 H         1 <0>         0.0816
     31 H14         5.4193   -5.4197    1.2127 H         1 <0>         0.0760
     32 H15         3.8945   -4.6411    1.6993 H         1 <0>         0.0639
     33 H16         0.9131    0.4132    1.1990 H         1 <0>         0.4260
@<TRIPOS>BOND
     1    1    2 1
     2    1   18 1
     3    1   19 1
     4    1   20 1
     5    2    3 1
     6    2   21 1
     7    2   22 1
     8    3    4 1
     9    3   23 1
    10    3   33 1
    11    4    5 1
    12    4   24 1
    13    4   25 1
    14    5    9 1
    15    5    6 2
    16    6    7 1
    17    6   26 1
    18    7    8 1
    19    8    9 2
    20    8   10 1
    21   10   15 ar
    22   10   11 ar
    23   11   12 ar
    24   11   27 1
    25   12   13 ar
    26   12   17 1
    27   13   14 ar
    28   13   28 1
    29   14   15 ar
    30   14   29 1
    31   15   16 1
    32   16   30 1
    33   16   31 1
    34   16   32 1
@<TRIPOS>MOLECULE
ZINC25666252
   28    30     0     0     0
SMALL
USER_CHARGES
2-(4-fluorophenyl)-4-phenyl-thiazole
@<TRIPOS>ATOM
      1 C1         -8.7429    2.1722    0.0571 C.ar      1 <0>        -0.1121
      2 C2         -7.6677    3.0424    0.0559 C.ar      1 <0>        -0.1224
      3 C3         -6.3783    2.5503    0.0466 C.ar      1 <0>        -0.0856
      4 C4         -6.1608    1.1737    0.0384 C.ar      1 <0>        -0.0299
      5 C5         -7.2479    0.3017    0.0339 C.ar      1 <0>        -0.1045
      6 C6         -8.5329    0.8050    0.0490 C.ar      1 <0>        -0.1201
      7 C7         -4.7772    0.6387    0.0285 C.2       1 <0>         0.1022
      8 C8         -4.5590   -0.7144    0.0204 C.2       1 <0>        -0.1923
      9 S1         -2.7714   -0.7615    0.0115 S.3       1 <0>         0.0268
     10 C9         -2.5025    1.0057    0.0193 C.2       1 <0>         0.1597
     11 N1         -3.7449    1.4613    0.0331 N.2       1 <0>        -0.4886
     12 C10        -1.2299    1.7584    0.0174 C.ar      1 <0>        -0.0299
     13 C11        -0.0126    1.0758    0.0080 C.ar      1 <0>        -0.0612
     14 C12         1.1715    1.7828    0.0004 C.ar      1 <0>        -0.1509
     15 C13         1.1541    3.1685    0.0081 C.ar      1 <0>         0.1211
     16 C14        -0.0518    3.8512    0.0229 C.ar      1 <0>        -0.1535
     17 C15        -1.2417    3.1540    0.0300 C.ar      1 <0>        -0.0398
     18 F1          2.3169    3.8563    0.0007 F         1 <0>        -0.1321
     19 H1         -9.7502    2.5617    0.0647 H         1 <0>         0.1244
     20 H2         -7.8374    4.1090    0.0618 H         1 <0>         0.1258
     21 H3         -5.5396    3.2306    0.0460 H         1 <0>         0.1320
     22 H4         -7.0851   -0.7659    0.0231 H         1 <0>         0.1241
     23 H5         -9.3761    0.1301    0.0500 H         1 <0>         0.1268
     24 H6         -5.2700   -1.5273    0.0197 H         1 <0>         0.2025
     25 H7          0.0021   -0.0041    0.0020 H         1 <0>         0.1384
     26 H8          2.1141    1.2556   -0.0118 H         1 <0>         0.1463
     27 H9         -0.0599    4.9312    0.0284 H         1 <0>         0.1460
     28 H10        -2.1810    3.6869    0.0412 H         1 <0>         0.1467
@<TRIPOS>BOND
     1    1    6 ar
     2    1    2 ar
     3    1   19 1
     4    2    3 ar
     5    2   20 1
     6    3    4 ar
     7    3   21 1
     8    4    5 ar
     9    4    7 1
    10    5    6 ar
    11    5   22 1
    12    6   23 1
    13    7   11 1
    14    7    8 2
    15    8    9 1
    16    8   24 1
    17    9   10 1
    18   10   11 2
    19   10   12 1
    20   12   17 ar
    21   12   13 ar
    22   13   14 ar
    23   13   25 1
    24   14   15 ar
    25   14   26 1
    26   15   16 ar
    27   15   18 1
    28   16   17 ar
    29   16   27 1
    30   17   28 1
@<TRIPOS>MOLECULE
ZINC61798268
   33    35     0     0     0
SMALL
USER_CHARGES

@<TRIPOS>ATOM
      1 C1         -0.0164    1.3571    0.0095 C.ar      1 <0>        -0.0981
      2 C2          1.1682    2.0913    0.0021 C.ar      1 <0>        -0.1096
      3 C3          2.3779    1.4681   -0.0132 C.ar      1 <0>        -0.1006
      4 C4          2.4369    0.0628   -0.0213 C.ar      1 <0>        -0.0561
      5 C5          3.6673   -0.6114   -0.0365 C.ar      1 <0>        -0.0577
      6 C6          3.6849   -1.9957   -0.0437 C.ar      1 <0>        -0.0307
      7 C7          2.4826   -2.7251   -0.0359 C.ar      1 <0>        -0.0808
      8 C8          1.2832   -2.0898   -0.0211 C.ar      1 <0>        -0.0990
      9 C9          1.2315   -0.6839   -0.0134 C.ar      1 <0>        -0.0337
     10 C10         0.0021   -0.0041    0.0020 C.ar      1 <0>        -0.1119
     11 C11         4.9775   -2.7125   -0.0602 C.2       1 <0>         0.1770
     12 N1          5.2163   -4.0166   -0.0747 N.2       1 <0>        -0.5125
     13 C12         6.4420   -4.4845   -0.0890 C.2       1 <0>         0.0417
     14 C13         7.4956   -3.6249   -0.0892 C.2       1 <0>        -0.1974
     15 S1          6.6399   -2.0544   -0.0741 S.3       1 <0>         0.0565
     16 C14         6.6818   -5.9723   -0.1048 C.3       1 <0>        -0.0691
     17 C15         5.9553   -6.6185    1.0766 C.3       1 <0>        -0.0030
     18 N2          6.1891   -8.0687    1.0612 N.4       1 <0>        -0.6373
     19 H1         -0.9634    1.8760    0.0259 H         1 <0>         0.1305
     20 H2          1.1255    3.1704    0.0083 H         1 <0>         0.1308
     21 H3          3.2880    2.0495   -0.0195 H         1 <0>         0.1327
     22 H4          4.5929   -0.0550   -0.0429 H         1 <0>         0.1333
     23 H5          2.5141   -3.8046   -0.0420 H         1 <0>         0.1323
     24 H6          0.3683   -2.6638   -0.0152 H         1 <0>         0.1372
     25 H7         -0.9244   -0.5590    0.0079 H         1 <0>         0.1334
     26 H8          8.5553   -3.8328   -0.0997 H         1 <0>         0.2029
     27 H9          6.3037   -6.3914   -1.0372 H         1 <0>         0.1018
     28 H10         7.7510   -6.1688   -0.0253 H         1 <0>         0.1020
     29 H11         6.3335   -6.1993    2.0090 H         1 <0>         0.1329
     30 H12         4.8861   -6.4219    0.9971 H         1 <0>         0.1420
     31 H13         7.1788   -8.2506    1.1348 H         1 <0>         0.4345
     32 H14         5.7099   -8.4948    1.8403 H         1 <0>         0.4398
     33 H15         5.8390   -8.4567    0.1981 H         1 <0>         0.4361
@<TRIPOS>BOND
     1    1   10 ar
     2    1    2 ar
     3    1   19 1
     4    2    3 ar
     5    2   20 1
     6    3    4 ar
     7    3   21 1
     8    4    9 ar
     9    4    5 ar
    10    5    6 ar
    11    5   22 1
    12    6    7 ar
    13    6   11 1
    14    7    8 ar
    15    7   23 1
    16    8    9 ar
    17    8   24 1
    18    9   10 ar
    19   10   25 1
    20   11   15 1
    21   11   12 2
    22   12   13 1
    23   13   14 2
    24   13   16 1
    25   14   15 1
    26   14   26 1
    27   16   17 1
    28   16   27 1
    29   16   28 1
    30   17   18 1
    31   17   29 1
    32   17   30 1
    33   18   31 1
    34   18   32 1
    35   18   33 1
@<TRIPOS>MOLECULE
ZINC70840167
   30    31     0     0     0
SMALL
USER_CHARGES

@<TRIPOS>ATOM
      1 C1          2.0153   -1.9923    2.0109 C.3       1 <0>        -0.1114
      2 C2          0.9787   -1.6815    0.9622 C.ar      1 <0>        -0.0481
      3 C3          1.0402   -2.2938   -0.2730 C.ar      1 <0>        -0.0887
      4 C4          0.0899   -2.0108   -1.2371 C.ar      1 <0>        -0.1167
      5 C5         -0.9296   -1.1108   -0.9699 C.ar      1 <0>         0.1045
      6 C6         -1.0013   -0.4912    0.2631 C.ar      1 <0>        -0.1175
      7 C7         -0.0481   -0.7786    1.2407 C.ar      1 <0>        -0.0127
      8 C8         -0.1219   -0.1240    2.5646 C.2       1 <0>         0.1798
      9 N1         -0.0069   -0.6554    3.7735 N.2       1 <0>        -0.4989
     10 C9         -0.0994    0.0832    4.8542 C.2       1 <0>        -0.0138
     11 C10        -0.3174    1.4207    4.7440 C.2       1 <0>        -0.1712
     12 S1         -0.3825    1.5989    2.9656 S.3       1 <0>         0.1042
     13 C11         0.0352   -0.5500    6.2150 C.3       1 <0>         0.1178
     14 H1         -0.1576    0.1977    6.9844 H         1 <0>         0.1536
     15 C12        -0.9750   -1.6913    6.3487 C.3       1 <0>        -0.1776
     16 N2          1.3960   -1.0791    6.3765 N.4       1 <0>        -0.6345
     17 F1         -1.8544   -0.8386   -1.9164 F         1 <0>        -0.1265
     18 H2          1.6408   -2.7742    2.6715 H         1 <0>         0.0796
     19 H3          2.9307   -2.3331    1.5271 H         1 <0>         0.0764
     20 H4          2.2243   -1.0945    2.5925 H         1 <0>         0.0600
     21 H5          1.8326   -2.9955   -0.4875 H         1 <0>         0.1473
     22 H6          0.1427   -2.4928   -2.2021 H         1 <0>         0.1495
     23 H7         -1.7956    0.2104    0.4711 H         1 <0>         0.1434
     24 H8         -0.4191    2.1688    5.5162 H         1 <0>         0.2112
     25 H9         -1.9847   -1.2987    6.2289 H         1 <0>         0.1037
     26 H10        -0.7823   -2.4390    5.5793 H         1 <0>         0.0903
     27 H11        -0.8776   -2.1493    7.3330 H         1 <0>         0.0865
     28 H12         2.0622   -0.3264    6.2884 H         1 <0>         0.4347
     29 H13         1.4861   -1.5031    7.2876 H         1 <0>         0.4379
     30 H14         1.5744   -1.7713    5.6643 H         1 <0>         0.4374
@<TRIPOS>BOND
     1    1    2 1
     2    1   18 1
     3    1   19 1
     4    1   20 1
     5    2    7 ar
     6    2    3 ar
     7    3    4 ar
     8    3   21 1
     9    4    5 ar
    10    4   22 1
    11    5    6 ar
    12    5   17 1
    13    6    7 ar
    14    6   23 1
    15    7    8 1
    16    8   12 1
    17    8    9 2
    18    9   10 1
    19   10   11 2
    20   10   13 1
    21   11   12 1
    22   11   24 1
    23   13   14 1
    24   13   15 1
    25   13   16 1
    26   15   25 1
    27   15   26 1
    28   15   27 1
    29   16   28 1
    30   16   29 1
    31   16   30 1
@<TRIPOS>MOLECULE
ZINC07845411
   28    30     0     0     0
SMALL
USER_CHARGES
2,4-bis(4-fluorophenyl)thiazole
@<TRIPOS>ATOM
      1 C1          7.2406    0.4982   -0.0562 C.ar      1 <0>        -0.0752
      2 C2          8.5117    1.0350   -0.0698 C.ar      1 <0>        -0.1527
      3 C3          8.6855    2.4095   -0.0650 C.ar      1 <0>         0.1061
      4 C4          7.5850    3.2510   -0.0510 C.ar      1 <0>        -0.1550
      5 C5          6.3102    2.7229   -0.0423 C.ar      1 <0>        -0.0563
      6 C6          6.1307    1.3409   -0.0475 C.ar      1 <0>        -0.0388
      7 C7          4.7620    0.7684   -0.0376 C.2       1 <0>         0.1024
      8 C8          4.5806   -0.5900   -0.0427 C.2       1 <0>        -0.1923
      9 S1          2.7951   -0.6857   -0.0266 S.3       1 <0>         0.0323
     10 C9          2.4782    1.0735   -0.0148 C.2       1 <0>         0.1616
     11 N1          3.7080    1.5628   -0.0292 N.2       1 <0>        -0.4901
     12 C10         1.1857    1.7913    0.0004 C.ar      1 <0>        -0.0312
     13 C11        -0.0126    1.0758    0.0080 C.ar      1 <0>        -0.0607
     14 C12        -1.2155    1.7503    0.0173 C.ar      1 <0>        -0.1509
     15 C13        -1.2356    3.1360    0.0293 C.ar      1 <0>         0.1219
     16 C14        -0.0486    3.8513    0.0222 C.ar      1 <0>        -0.1536
     17 C15         1.1597    3.1867    0.0076 C.ar      1 <0>        -0.0393
     18 F1         -2.4166    3.7919    0.0432 F         1 <0>        -0.1318
     19 F2          9.9318    2.9308   -0.0735 F         1 <0>        -0.1368
     20 H1          7.1061   -0.5734   -0.0561 H         1 <0>         0.1354
     21 H2          9.3724    0.3828   -0.0807 H         1 <0>         0.1407
     22 H3          7.7251    4.3218   -0.0466 H         1 <0>         0.1398
     23 H4          5.4529    3.3796   -0.0310 H         1 <0>         0.1430
     24 H5          5.3134   -1.3833   -0.0538 H         1 <0>         0.2034
     25 H6          0.0021   -0.0041    0.0020 H         1 <0>         0.1384
     26 H7         -2.1434    1.1977    0.0190 H         1 <0>         0.1465
     27 H8         -0.0699    4.9310    0.0279 H         1 <0>         0.1461
     28 H9          2.0842    3.7450    0.0014 H         1 <0>         0.1469
@<TRIPOS>BOND
     1    1    6 ar
     2    1    2 ar
     3    1   20 1
     4    2    3 ar
     5    2   21 1
     6    3    4 ar
     7    3   19 1
     8    4    5 ar
     9    4   22 1
    10    5    6 ar
    11    5   23 1
    12    6    7 1
    13    7   11 1
    14    7    8 2
    15    8    9 1
    16    8   24 1
    17    9   10 1
    18   10   11 2
    19   10   12 1
    20   12   17 ar
    21   12   13 ar
    22   13   14 ar
    23   13   25 1
    24   14   15 ar
    25   14   26 1
    26   15   16 ar
    27   15   18 1
    28   16   17 ar
    29   16   27 1
    30   17   28 1
@<TRIPOS>MOLECULE
ZINC70840169
   30    31     0     0     0
SMALL
USER_CHARGES

@<TRIPOS>ATOM
      1 C1          2.0152   -1.9926    2.0110 C.3       1 <0>        -0.1134
      2 C2          0.9786   -1.6816    0.9622 C.ar      1 <0>        -0.0404
      3 C3          1.0401   -2.2939   -0.2730 C.ar      1 <0>        -0.0897
      4 C4          0.0899   -2.0108   -1.2371 C.ar      1 <0>        -0.1140
      5 C5         -0.9295   -1.1107   -0.9699 C.ar      1 <0>         0.1014
      6 C6         -1.0012   -0.4911    0.2630 C.ar      1 <0>        -0.1159
      7 C7         -0.0481   -0.7786    1.2407 C.ar      1 <0>        -0.0193
      8 C8         -0.1219   -0.1240    2.5646 C.2       1 <0>         0.1946
      9 N1         -0.0069   -0.6554    3.7735 N.2       1 <0>        -0.4855
     10 C9         -0.0994    0.0832    4.8542 C.2       1 <0>         0.0344
     11 C10        -0.3174    1.4207    4.7440 C.2       1 <0>        -0.2564
     12 S1         -0.3825    1.5989    2.9656 S.3       1 <0>         0.1112
     13 C11         0.0352   -0.5500    6.2150 C.3       1 <0>         0.1101
     14 H1          1.0449   -0.9426    6.3348 H         1 <0>         0.1579
     15 C12        -0.9750   -1.6913    6.3487 C.3       1 <0>        -0.1752
     16 N2         -0.2246    0.4577    7.2519 N.4       1 <0>        -0.6353
     17 F1         -1.8542   -0.8384   -1.9165 F         1 <0>        -0.1272
     18 H2          1.6405   -2.7744    2.6716 H         1 <0>         0.0839
     19 H3          2.9305   -2.3334    1.5272 H         1 <0>         0.0763
     20 H4          2.2242   -1.0947    2.5926 H         1 <0>         0.0625
     21 H5          1.8325   -2.9957   -0.4874 H         1 <0>         0.1485
     22 H6          0.1427   -2.4928   -2.2021 H         1 <0>         0.1497
     23 H7         -1.7954    0.2105    0.4710 H         1 <0>         0.1429
     24 H8         -0.4191    2.1688    5.5162 H         1 <0>         0.1987
     25 H9         -0.8776   -2.1493    7.3330 H         1 <0>         0.0882
     26 H10        -1.9847   -1.2987    6.2289 H         1 <0>         0.0805
     27 H11        -0.7823   -2.4390    5.5793 H         1 <0>         0.1155
     28 H12        -1.1593    0.8212    7.1410 H         1 <0>         0.4351
     29 H13        -0.1345    0.0338    8.1630 H         1 <0>         0.4442
     30 H14         0.4416    1.2104    7.1638 H         1 <0>         0.4367
@<TRIPOS>BOND
     1    1    2 1
     2    1   18 1
     3    1   19 1
     4    1   20 1
     5    2    7 ar
     6    2    3 ar
     7    3    4 ar
     8    3   21 1
     9    4    5 ar
    10    4   22 1
    11    5    6 ar
    12    5   17 1
    13    6    7 ar
    14    6   23 1
    15    7    8 1
    16    8   12 1
    17    8    9 2
    18    9   10 1
    19   10   11 2
    20   10   13 1
    21   11   12 1
    22   11   24 1
    23   13   14 1
    24   13   15 1
    25   13   16 1
    26   15   25 1
    27   15   26 1
    28   15   27 1
    29   16   28 1
    30   16   29 1
    31   16   30 1
@<TRIPOS>MOLECULE
ZINC51596251
   36    37     0     0     0
SMALL
USER_CHARGES

@<TRIPOS>ATOM
      1 C1         -0.0187    1.5258    0.0104 C.3       1 <0>        -0.1564
      2 C2          0.0021   -0.0041    0.0020 C.3       1 <0>        -0.1516
      3 C3         -1.4333   -0.5336    0.0129 C.3       1 <0>        -0.0102
      4 N1         -1.4134   -2.0025    0.0048 N.4       1 <0>        -0.5085
      5 C4         -2.7915   -2.5110    0.0152 C.3       1 <0>         0.0789
      6 C5         -2.7711   -4.0178    0.0069 C.2       1 <0>        -0.0111
      7 C6         -2.8584   -4.7062    1.1757 C.2       1 <0>        -0.1929
      8 S1         -2.7874   -6.3888    0.5738 S.3       1 <0>         0.1236
      9 C7         -2.6497   -5.9927   -1.1643 C.2       1 <0>         0.1738
     10 N2         -2.6745   -4.6677   -1.1294 N.2       1 <0>        -0.5056
     11 C8         -2.5425   -6.8988   -2.3274 C.ar      1 <0>        -0.0809
     12 C9         -2.4368   -6.3751   -3.6166 C.ar      1 <0>        -0.0324
     13 C10        -2.3366   -7.2257   -4.6979 C.ar      1 <0>        -0.1319
     14 C11        -2.3410   -8.5965   -4.5078 C.ar      1 <0>        -0.0175
     15 C12        -2.4453   -9.1243   -3.2340 C.ar      1 <0>        -0.1523
     16 C13        -2.5406   -8.2837   -2.1406 C.ar      1 <0>         0.1356
     17 F1         -2.6368   -8.7996   -0.8957 F         1 <0>        -0.1240
     18 C14        -2.2322   -9.5185   -5.6949 C.3       1 <0>        -0.1287
     19 H1          1.0039    1.9031    0.0027 H         1 <0>         0.0776
     20 H2         -0.5459    1.8868   -0.8726 H         1 <0>         0.0676
     21 H3         -0.5289    1.8773    0.9072 H         1 <0>         0.0674
     22 H4          0.5123   -0.3556   -0.8948 H         1 <0>         0.0862
     23 H5          0.5293   -0.3651    0.8851 H         1 <0>         0.0861
     24 H6         -1.9435   -0.1821    0.9097 H         1 <0>         0.1330
     25 H7         -1.9605   -0.1726   -0.8702 H         1 <0>         0.1331
     26 H8         -0.9411   -2.3279   -0.8254 H         1 <0>         0.4309
     27 H9         -3.3017   -2.1594    0.9120 H         1 <0>         0.1455
     28 H10        -3.3187   -2.1499   -0.8678 H         1 <0>         0.1447
     29 H11        -2.9457   -4.3389    2.1876 H         1 <0>         0.2097
     30 H12        -2.4339   -5.3057   -3.7676 H         1 <0>         0.1450
     31 H13        -2.2549   -6.8208   -5.6957 H         1 <0>         0.1441
     32 H14        -2.4485  -10.1950   -3.0927 H         1 <0>         0.1508
     33 H15        -1.1820   -9.7320   -5.8940 H         1 <0>         0.0862
     34 H16        -2.7580  -10.4491   -5.4816 H         1 <0>         0.0784
     35 H17        -2.6777   -9.0412   -6.5677 H         1 <0>         0.0797
     36 H18        -0.9254   -2.3367    0.8222 H         1 <0>         0.4261
@<TRIPOS>BOND
     1    1    2 1
     2    1   19 1
     3    1   20 1
     4    1   21 1
     5    2    3 1
     6    2   22 1
     7    2   23 1
     8    3    4 1
     9    3   24 1
    10    3   25 1
    11    4    5 1
    12    4   26 1
    13    4   36 1
    14    5    6 1
    15    5   27 1
    16    5   28 1
    17    6   10 1
    18    6    7 2
    19    7    8 1
    20    7   29 1
    21    8    9 1
    22    9   10 2
    23    9   11 1
    24   11   16 ar
    25   11   12 ar
    26   12   13 ar
    27   12   30 1
    28   13   14 ar
    29   13   31 1
    30   14   15 ar
    31   14   18 1
    32   15   16 ar
    33   15   32 1
    34   16   17 1
    35   18   33 1
    36   18   34 1
    37   18   35 1
@<TRIPOS>MOLECULE
ZINC62791417
   20    21     0     0     0
SMALL
USER_CHARGES

@<TRIPOS>ATOM
      1 C1         -0.0168    1.3910    0.0097 C.ar      1 <0>        -0.0725
      2 C2          1.1695    2.0950    0.0021 C.ar      1 <0>        -0.1368
      3 C3          2.3788    1.4195   -0.0130 C.ar      1 <0>         0.1093
      4 C4          2.4038    0.0326   -0.0207 C.ar      1 <0>        -0.0698
      5 C5          1.2225   -0.6807   -0.0137 C.ar      1 <0>        -0.0455
      6 C6          0.0021   -0.0041    0.0020 C.ar      1 <0>         0.0192
      7 C7         -1.2671   -0.7633    0.0105 C.2       1 <0>         0.0566
      8 N1         -1.4532   -2.0694    0.0108 N.2       1 <0>        -0.4107
      9 C8         -2.6967   -2.5338    0.0194 C.2       1 <0>        -0.0127
     10 C9         -3.7424   -1.6304    0.0277 C.2       1 <0>        -0.2090
     11 S1         -2.9420   -0.1498    0.0311 S.3       1 <0>         0.0887
     12 C10        -2.9561   -3.9794    0.0195 C.2       1 <0>         0.5470
     13 O1         -2.0209   -4.7690    0.0121 O.co2     1 <0>        -0.6624
     14 O2         -4.1075   -4.3946    0.0270 O.co2     1 <0>        -0.6830
     15 Cl1         3.9232   -0.8069   -0.0397 Cl        1 <0>        -0.0455
     16 F1          3.5378    2.1138   -0.0208 F         1 <0>        -0.1271
     17 H1         -0.9589    1.9189    0.0260 H         1 <0>         0.1435
     18 H2          1.1554    3.1749    0.0077 H         1 <0>         0.1505
     19 H3          1.2425   -1.7605   -0.0204 H         1 <0>         0.1594
     20 H4         -4.8046   -1.8252    0.0352 H         1 <0>         0.2009
@<TRIPOS>BOND
     1    1    6 ar
     2    1    2 ar
     3    1   17 1
     4    2    3 ar
     5    2   18 1
     6    3    4 ar
     7    3   16 1
     8    4    5 ar
     9    4   15 1
    10    5    6 ar
    11    5   19 1
    12    6    7 1
    13    7   11 1
    14    7    8 2
    15    8    9 1
    16    9   10 2
    17    9   12 1
    18   10   11 1
    19   10   20 1
    20   12   13 2
    21   12   14 1
@<TRIPOS>MOLECULE
ZINC41324123
   21    22     0     0     0
SMALL
USER_CHARGES

@<TRIPOS>ATOM
      1 C1         -0.0184    1.5028    0.0103 C.3       1 <0>        -0.0853
      2 C2          0.0021   -0.0041    0.0020 C.2       1 <0>         0.0569
      3 C3          0.0053   -0.6785   -1.1784 C.2       1 <0>        -0.1990
      4 S1          0.0319   -2.3682   -0.5929 S.3       1 <0>         0.0168
      5 C4          0.0359   -1.9928    1.1552 C.2       1 <0>         0.1482
      6 N1          0.0223   -0.6674    1.1342 N.2       1 <0>        -0.4908
      7 C5          0.0548   -2.9128    2.3126 C.ar      1 <0>        -0.0006
      8 C6          0.0482   -2.4041    3.6121 C.ar      1 <0>        -0.0650
      9 C7          0.0655   -3.2674    4.6878 C.ar      1 <0>        -0.0901
     10 C8          0.0898   -4.6360    4.4803 C.ar      1 <0>        -0.0755
     11 C9          0.0969   -5.1466    3.1934 C.ar      1 <0>        -0.0878
     12 C10         0.0735   -4.2934    2.1098 C.ar      1 <0>        -0.0865
     13 Br1         0.1139   -5.8127    5.9604 Br        1 <0>        -0.0392
     14 H1          1.0042    1.8801    0.0026 H         1 <0>         0.0760
     15 H2         -0.5455    1.8639   -0.8728 H         1 <0>         0.0757
     16 H3         -0.5286    1.8543    0.9071 H         1 <0>         0.0760
     17 H4         -0.0059   -0.2990   -2.1895 H         1 <0>         0.2013
     18 H5          0.0300   -1.3366    3.7752 H         1 <0>         0.1459
     19 H6          0.0604   -2.8749    5.6940 H         1 <0>         0.1428
     20 H7          0.1166   -6.2152    3.0377 H         1 <0>         0.1430
     21 H8          0.0742   -4.6930    1.1064 H         1 <0>         0.1371
@<TRIPOS>BOND
     1    1    2 1
     2    1   14 1
     3    1   15 1
     4    1   16 1
     5    2    6 1
     6    2    3 2
     7    3    4 1
     8    3   17 1
     9    4    5 1
    10    5    6 2
    11    5    7 1
    12    7   12 ar
    13    7    8 ar
    14    8    9 ar
    15    8   18 1
    16    9   10 ar
    17    9   19 1
    18   10   11 ar
    19   10   13 1
    20   11   12 ar
    21   11   20 1
    22   12   21 1
@<TRIPOS>MOLECULE
ZINC14193478
   34    36     0     0     0
SMALL
USER_CHARGES

@<TRIPOS>ATOM
      1 C1         -0.0166    1.3752    0.0096 C.ar      1 <0>        -0.1120
      2 C2          1.1701    2.0869    0.0021 C.ar      1 <0>        -0.0743
      3 C3          2.3826    1.4218   -0.0130 C.ar      1 <0>        -0.1026
      4 C4          2.4159    0.0410   -0.0212 C.ar      1 <0>        -0.0191
      5 C5          1.2216   -0.6825   -0.0136 C.ar      1 <0>        -0.0252
      6 C6          0.0021   -0.0041    0.0020 C.ar      1 <0>        -0.0558
      7 C7          1.2488   -2.1607   -0.0228 C.2       1 <0>         0.1593
      8 N1          0.2401   -3.0208   -0.0234 N.2       1 <0>        -0.4981
      9 C8          0.4494   -4.3164   -0.0329 C.2       1 <0>        -0.0088
     10 C9          1.7209   -4.7972   -0.0424 C.2       1 <0>        -0.2060
     11 S1          2.6512   -3.2697   -0.0439 S.3       1 <0>         0.1361
     12 C10        -0.7179   -5.2696   -0.0328 C.3       1 <0>         0.0802
     13 N2         -1.1665   -5.4943    1.3478 N.4       1 <0>        -0.3930
     14 C11        -1.7787   -4.2567    1.8953 C.3       1 <0>         0.0040
     15 C12        -2.6677   -4.7819    3.0504 C.3       1 <0>        -0.1463
     16 C13        -3.2225   -6.1090    2.4837 C.3       1 <0>        -0.1440
     17 C14        -2.2329   -6.5187    1.3773 C.3       1 <0>        -0.0082
     18 Cl1         3.9384   -0.7927   -0.0413 Cl        1 <0>        -0.0290
     19 H1         -0.9599    1.9010    0.0259 H         1 <0>         0.1441
     20 H2          1.1494    3.1667    0.0077 H         1 <0>         0.1464
     21 H3          3.3052    1.9832   -0.0188 H         1 <0>         0.1489
     22 H4         -0.9251   -0.5578    0.0082 H         1 <0>         0.1440
     23 H5          2.0720   -5.8185   -0.0509 H         1 <0>         0.2053
     24 H6         -1.5348   -4.8437   -0.6155 H         1 <0>         0.1407
     25 H7         -0.4125   -6.2181   -0.4746 H         1 <0>         0.1418
     26 H8         -1.0106   -3.5836    2.2765 H         1 <0>         0.1280
     27 H9         -2.3855   -3.7601    1.1381 H         1 <0>         0.1357
     28 H10        -2.0710   -4.9638    3.9443 H         1 <0>         0.0955
     29 H11        -3.4779   -4.0841    3.2616 H         1 <0>         0.1159
     30 H12        -3.2540   -6.8697    3.2638 H         1 <0>         0.1046
     31 H13        -4.2166   -5.9549    2.0641 H         1 <0>         0.1039
     32 H14        -2.7440   -6.5504    0.4151 H         1 <0>         0.1316
     33 H15        -1.8041   -7.4946    1.6053 H         1 <0>         0.1324
     34 H16        -0.3901   -5.7836    1.9236 H         1 <0>         0.4241
@<TRIPOS>BOND
     1    1    6 ar
     2    1    2 ar
     3    1   19 1
     4    2    3 ar
     5    2   20 1
     6    3    4 ar
     7    3   21 1
     8    4    5 ar
     9    4   18 1
    10    5    6 ar
    11    5    7 1
    12    6   22 1
    13    7   11 1
    14    7    8 2
    15    8    9 1
    16    9   10 2
    17    9   12 1
    18   10   11 1
    19   10   23 1
    20   12   13 1
    21   12   24 1
    22   12   25 1
    23   13   17 1
    24   13   14 1
    25   13   34 1
    26   14   15 1
    27   14   26 1
    28   14   27 1
    29   15   16 1
    30   15   28 1
    31   15   29 1
    32   16   17 1
    33   16   30 1
    34   16   31 1
    35   17   32 1
    36   17   33 1
@<TRIPOS>MOLECULE
ZINC62786669
   33    34     0     0     0
SMALL
USER_CHARGES

@<TRIPOS>ATOM
      1 C1         -0.0187    1.5258    0.0104 C.3       1 <0>        -0.1565
      2 C2          0.0021   -0.0041    0.0020 C.3       1 <0>        -0.1515
      3 C3          0.7182   -0.4975   -1.2568 C.3       1 <0>        -0.0103
      4 N1          0.7381   -1.9663   -1.2649 N.4       1 <0>        -0.5087
      5 C4          1.4257   -2.4401   -2.4735 C.3       1 <0>         0.0786
      6 C5          1.4462   -3.9469   -2.4818 C.2       1 <0>        -0.0124
      7 C6          0.4883   -4.6369   -3.1553 C.2       1 <0>        -0.1878
      8 S1          0.9998   -6.3187   -2.8261 S.3       1 <0>         0.1334
      9 C7          2.4301   -5.9203   -1.8297 C.2       1 <0>         0.1640
     10 N2          2.3922   -4.5951   -1.8429 N.2       1 <0>        -0.4995
     11 C8          3.3975   -6.8247   -1.1732 C.ar      1 <0>        -0.0668
     12 C9          4.4531   -6.2991   -0.4268 C.ar      1 <0>        -0.0252
     13 C10         5.3528   -7.1476    0.1835 C.ar      1 <0>        -0.1190
     14 C11         5.2116   -8.5198    0.0576 C.ar      1 <0>         0.0183
     15 C12         4.1676   -9.0493   -0.6808 C.ar      1 <0>        -0.1416
     16 C13         3.2558   -8.2099   -1.2926 C.ar      1 <0>         0.1443
     17 F1          2.2333   -8.7271   -2.0084 F         1 <0>        -0.1165
     18 Cl1         6.3493   -9.5801    0.8290 Cl        1 <0>        -0.0278
     19 H1          1.0039    1.9031    0.0027 H         1 <0>         0.0677
     20 H2         -0.5459    1.8868   -0.8726 H         1 <0>         0.0675
     21 H3         -0.5289    1.8773    0.9072 H         1 <0>         0.0777
     22 H4          0.5293   -0.3651    0.8851 H         1 <0>         0.0863
     23 H5         -1.0205   -0.3814    0.0098 H         1 <0>         0.0861
     24 H6          0.1910   -0.1364   -2.1398 H         1 <0>         0.1332
     25 H7          1.7408   -0.1202   -1.2645 H         1 <0>         0.1334
     26 H8          1.2261   -2.3006   -0.4474 H         1 <0>         0.4309
     27 H9          0.8985   -2.0790   -3.3565 H         1 <0>         0.1462
     28 H10         2.4483   -2.0628   -2.4812 H         1 <0>         0.1454
     29 H11        -0.3496   -4.2709   -3.7301 H         1 <0>         0.2112
     30 H12         4.5655   -5.2295   -0.3275 H         1 <0>         0.1553
     31 H13         6.1700   -6.7411    0.7609 H         1 <0>         0.1556
     32 H14         4.0627  -10.1200   -0.7753 H         1 <0>         0.1622
     33 H15        -0.2085   -2.3156   -1.2577 H         1 <0>         0.4263
@<TRIPOS>BOND
     1    1    2 1
     2    1   19 1
     3    1   20 1
     4    1   21 1
     5    2    3 1
     6    2   22 1
     7    2   23 1
     8    3    4 1
     9    3   24 1
    10    3   25 1
    11    4    5 1
    12    4   26 1
    13    4   33 1
    14    5    6 1
    15    5   27 1
    16    5   28 1
    17    6   10 1
    18    6    7 2
    19    7    8 1
    20    7   29 1
    21    8    9 1
    22    9   10 2
    23    9   11 1
    24   11   16 ar
    25   11   12 ar
    26   12   13 ar
    27   12   30 1
    28   13   14 ar
    29   13   31 1
    30   14   15 ar
    31   14   18 1
    32   15   16 ar
    33   15   32 1
    34   16   17 1
@<TRIPOS>MOLECULE
ZINC49826398
   40    41     0     0     0
SMALL
USER_CHARGES

@<TRIPOS>ATOM
      1 C1         -1.9016    1.6258    1.2005 C.3       1 <0>        -0.1554
      2 C2         -1.9752    0.0977    1.2184 C.3       1 <0>        -0.1501
      3 C3         -1.3645   -0.4575   -0.0699 C.3       1 <0>        -0.0160
      4 N1         -1.3188   -1.9240    0.0022 N.4       1 <0>        -0.3810
      5 C4         -0.6097   -2.4501   -1.1718 C.3       1 <0>        -0.0075
      6 C5          0.8570   -2.0179   -1.1178 C.3       1 <0>         0.0466
      7 O1          1.4823   -2.5972    0.0292 O.3       1 <0>        -0.5796
      8 C6         -2.6879   -2.4560    0.0264 C.3       1 <0>         0.0714
      9 C7         -2.6431   -3.9493    0.2237 C.2       1 <0>        -0.0077
     10 C8         -2.7692   -4.4753    1.4709 C.2       1 <0>        -0.2031
     11 S1         -2.6459   -6.2219    1.1064 S.3       1 <0>         0.1399
     12 C9         -2.4404   -6.0612   -0.6624 C.2       1 <0>         0.1579
     13 N2         -2.4878   -4.7444   -0.8088 N.2       1 <0>        -0.4999
     14 C10        -2.2694   -7.1136   -1.6867 C.ar      1 <0>        -0.0240
     15 C11        -2.1173   -6.7663   -3.0298 C.ar      1 <0>        -0.0566
     16 C12        -1.9581   -7.7530   -3.9806 C.ar      1 <0>        -0.1121
     17 C13        -1.9490   -9.0851   -3.6059 C.ar      1 <0>        -0.0748
     18 C14        -2.0991   -9.4371   -2.2769 C.ar      1 <0>        -0.1024
     19 C15        -2.2536   -8.4592   -1.3138 C.ar      1 <0>        -0.0189
     20 Cl1        -2.4347   -8.9020    0.3550 Cl        1 <0>        -0.0289
     21 H1         -2.3367    2.0213    2.1183 H         1 <0>         0.0774
     22 H2         -0.8599    1.9385    1.1280 H         1 <0>         0.0662
     23 H3         -2.4557    2.0062    0.3424 H         1 <0>         0.0674
     24 H4         -1.4211   -0.2827    2.0765 H         1 <0>         0.0855
     25 H5         -3.0169   -0.2150    1.2909 H         1 <0>         0.0868
     26 H6         -1.9743   -0.1544   -0.9210 H         1 <0>         0.1314
     27 H7         -0.3536   -0.0679   -0.1900 H         1 <0>         0.1309
     28 H8         -0.6679   -3.5385   -1.1738 H         1 <0>         0.1428
     29 H9         -1.0702   -2.0599   -2.0795 H         1 <0>         0.1416
     30 H10         1.3685   -2.3547   -2.0194 H         1 <0>         0.0933
     31 H11         0.9134   -0.9313   -1.0524 H         1 <0>         0.0706
     32 H12         2.4160   -2.3653    0.1273 H         1 <0>         0.4071
     33 H13        -3.2414   -1.9976    0.8459 H         1 <0>         0.1441
     34 H14        -3.1826   -2.2289   -0.9180 H         1 <0>         0.1414
     35 H15        -2.9057   -3.9766    2.4191 H         1 <0>         0.2052
     36 H16        -2.1245   -5.7273   -3.3242 H         1 <0>         0.1437
     37 H17        -1.8407   -7.4851   -5.0203 H         1 <0>         0.1438
     38 H18        -1.8243   -9.8533   -4.3547 H         1 <0>         0.1462
     39 H19        -2.0911  -10.4786   -1.9910 H         1 <0>         0.1489
     40 H20        -0.8341   -2.2045    0.8415 H         1 <0>         0.4280
@<TRIPOS>BOND
     1    1    2 1
     2    1   21 1
     3    1   22 1
     4    1   23 1
     5    2    3 1
     6    2   24 1
     7    2   25 1
     8    3    4 1
     9    3   26 1
    10    3   27 1
    11    4    5 1
    12    4    8 1
    13    4   40 1
    14    5    6 1
    15    5   28 1
    16    5   29 1
    17    6    7 1
    18    6   30 1
    19    6   31 1
    20    7   32 1
    21    8    9 1
    22    8   33 1
    23    8   34 1
    24    9   13 1
    25    9   10 2
    26   10   11 1
    27   10   35 1
    28   11   12 1
    29   12   13 2
    30   12   14 1
    31   14   19 ar
    32   14   15 ar
    33   15   16 ar
    34   15   36 1
    35   16   17 ar
    36   16   37 1
    37   17   18 ar
    38   17   38 1
    39   18   19 ar
    40   18   39 1
    41   19   20 1
@<TRIPOS>MOLECULE
ZINC35386330
   32    33     0     0     0
SMALL
USER_CHARGES

@<TRIPOS>ATOM
      1 C1         -0.0166    1.3752    0.0096 C.ar      1 <0>        -0.1117
      2 C2          1.1701    2.0869    0.0021 C.ar      1 <0>        -0.0789
      3 C3          2.3826    1.4218   -0.0130 C.ar      1 <0>        -0.1046
      4 C4          2.4159    0.0410   -0.0212 C.ar      1 <0>        -0.0201
      5 C5          1.2216   -0.6825   -0.0136 C.ar      1 <0>        -0.0193
      6 C6          0.0021   -0.0041    0.0020 C.ar      1 <0>        -0.0556
      7 C7          1.2488   -2.1607   -0.0228 C.2       1 <0>         0.1533
      8 N1          0.2401   -3.0208   -0.0234 N.2       1 <0>        -0.4931
      9 C8          0.4494   -4.3164   -0.0329 C.2       1 <0>        -0.0073
     10 C9          1.7209   -4.7972   -0.0424 C.2       1 <0>        -0.1997
     11 S1          2.6512   -3.2697   -0.0439 S.3       1 <0>         0.1219
     12 C10        -0.7179   -5.2696   -0.0328 C.3       1 <0>         0.0756
     13 N2         -1.1665   -5.4943    1.3478 N.4       1 <0>        -0.5083
     14 C11        -2.3043   -6.4234    1.3479 C.3       1 <0>         0.0144
     15 C12        -2.7715   -6.6574    2.7859 C.3       1 <0>        -0.2168
     16 C13        -3.9388   -7.6106    2.7860 C.2       1 <0>         0.4975
     17 O1         -4.3582   -8.0609    1.7335 O.co2     1 <0>        -0.6866
     18 O2         -4.4638   -7.9313    3.8386 O.co2     1 <0>        -0.6718
     19 Cl1         3.9384   -0.7927   -0.0413 Cl        1 <0>        -0.0320
     20 H1         -0.9599    1.9010    0.0259 H         1 <0>         0.1434
     21 H2          1.1494    3.1667    0.0077 H         1 <0>         0.1442
     22 H3          3.3052    1.9832   -0.0188 H         1 <0>         0.1467
     23 H4         -0.9251   -0.5578    0.0082 H         1 <0>         0.1464
     24 H5          2.0720   -5.8185   -0.0509 H         1 <0>         0.2071
     25 H6         -1.5348   -4.8437   -0.6155 H         1 <0>         0.1422
     26 H7         -0.4125   -6.2181   -0.4746 H         1 <0>         0.1435
     27 H8         -0.4103   -5.8885    1.8872 H         1 <0>         0.4199
     28 H9         -3.1212   -5.9975    0.7653 H         1 <0>         0.1318
     29 H10        -1.9989   -7.3719    0.9062 H         1 <0>         0.1316
     30 H11        -1.9547   -7.0833    3.3686 H         1 <0>         0.0808
     31 H12        -3.0769   -5.7089    3.2277 H         1 <0>         0.0810
     32 H13        -1.4492   -4.6162    1.7568 H         1 <0>         0.4245
@<TRIPOS>BOND
     1    1    6 ar
     2    1    2 ar
     3    1   20 1
     4    2    3 ar
     5    2   21 1
     6    3    4 ar
     7    3   22 1
     8    4    5 ar
     9    4   19 1
    10    5    6 ar
    11    5    7 1
    12    6   23 1
    13    7   11 1
    14    7    8 2
    15    8    9 1
    16    9   10 2
    17    9   12 1
    18   10   11 1
    19   10   24 1
    20   12   13 1
    21   12   25 1
    22   12   26 1
    23   13   14 1
    24   13   27 1
    25   13   32 1
    26   14   15 1
    27   14   28 1
    28   14   29 1
    29   15   16 1
    30   15   30 1
    31   15   31 1
    32   16   17 2
    33   16   18 1
@<TRIPOS>MOLECULE
ZINC15015004
   25    26     0     0     0
SMALL
USER_CHARGES
2-[2-(4-chlorophenyl)thiazol-4-yl]ethanol
@<TRIPOS>ATOM
      1 C1         -0.0126    1.0758    0.0080 C.ar      1 <0>        -0.0789
      2 C2         -1.2156    1.7506    0.0173 C.ar      1 <0>        -0.1074
      3 C3         -1.2359    3.1351    0.0293 C.ar      1 <0>        -0.0178
      4 C4         -0.0503    3.8504    0.0223 C.ar      1 <0>        -0.1099
      5 C5          1.1588    3.1866    0.0076 C.ar      1 <0>        -0.0576
      6 C6          1.1856    1.7913    0.0004 C.ar      1 <0>        -0.0132
      7 C7          2.4784    1.0739   -0.0158 C.2       1 <0>         0.1526
      8 N1          3.7111    1.5615   -0.0250 N.2       1 <0>        -0.4905
      9 C8          4.7571    0.7690   -0.0392 C.2       1 <0>         0.0607
     10 C9          4.5854   -0.5795   -0.0448 C.2       1 <0>        -0.1920
     11 S1          2.8002   -0.6849   -0.0204 S.3       1 <0>         0.0216
     12 C10         6.1463    1.3530   -0.0498 C.3       1 <0>        -0.0486
     13 C11         6.2842    2.3198   -1.2276 C.3       1 <0>         0.0839
     14 O1          7.6015    2.8735   -1.2377 O.3       1 <0>        -0.5760
     15 Cl1        -2.7538    3.9774    0.0465 Cl        1 <0>        -0.0583
     16 H1          0.0021   -0.0041    0.0020 H         1 <0>         0.1374
     17 H2         -2.1435    1.1979    0.0187 H         1 <0>         0.1439
     18 H3         -0.0722    4.9302    0.0279 H         1 <0>         0.1436
     19 H4          2.0829    3.7456    0.0014 H         1 <0>         0.1459
     20 H5          5.3227   -1.3686   -0.0566 H         1 <0>         0.2025
     21 H6          6.3222    1.8890    0.8828 H         1 <0>         0.0883
     22 H7          6.8770    0.5505   -0.1510 H         1 <0>         0.0876
     23 H8          6.1082    1.7837   -2.1602 H         1 <0>         0.0430
     24 H9          5.5535    3.1222   -1.1264 H         1 <0>         0.0561
     25 H10         7.7605    3.4969   -1.9596 H         1 <0>         0.3832
@<TRIPOS>BOND
     1    1    6 ar
     2    1    2 ar
     3    1   16 1
     4    2    3 ar
     5    2   17 1
     6    3    4 ar
     7    3   15 1
     8    4    5 ar
     9    4   18 1
    10    5    6 ar
    11    5   19 1
    12    6    7 1
    13    7   11 1
    14    7    8 2
    15    8    9 1
    16    9   10 2
    17    9   12 1
    18   10   11 1
    19   10   20 1
    20   12   13 1
    21   12   21 1
    22   12   22 1
    23   13   14 1
    24   13   23 1
    25   13   24 1
    26   14   25 1
@<TRIPOS>MOLECULE
ZINC87590112
   36    38     0     0     0
SMALL
USER_CHARGES

@<TRIPOS>ATOM
      1 C1         -0.0184    1.5028    0.0103 C.3       1 <0>        -0.1246
      2 C2          0.0021   -0.0041    0.0020 C.ar      1 <0>        -0.0543
      3 C3          0.0057   -0.6862   -1.2016 C.ar      1 <0>        -0.1189
      4 C4          0.0249   -2.0657   -1.2161 C.ar      1 <0>        -0.0828
      5 C5          0.0405   -2.7729   -0.0132 C.ar      1 <0>        -0.0387
      6 C6          0.0368   -2.0788    1.1974 C.ar      1 <0>        -0.0613
      7 C7          0.0229   -0.6992    1.1980 C.ar      1 <0>        -0.1237
      8 C8          0.0606   -4.2514   -0.0214 C.2       1 <0>         0.1753
      9 N1          0.0718   -5.0983    0.9984 N.2       1 <0>        -0.4944
     10 C9          0.0895   -6.3962    0.8061 C.2       1 <0>         0.0648
     11 C10         0.0966   -6.8936   -0.4593 C.2       1 <0>        -0.2099
     12 S1          0.0683   -5.3786   -1.4093 S.3       1 <0>         0.0322
     13 C11         0.1024   -7.3339    1.9857 C.3       1 <0>         0.0923
     14 N2          1.4849   -7.5249    2.4443 N.3       1 <0>        -0.4729
     15 C12         2.0857   -8.7222    1.8276 C.3       1 <0>        -0.0089
     16 C13         2.7109   -9.0433    3.1923 C.3       1 <0>        -0.0198
     17 C14         1.5200   -8.2400    3.7337 C.3       1 <0>        -0.0043
     18 N3          4.0168   -8.4099    3.4197 N.4       1 <0>        -0.6150
     19 H1          1.0042    1.8801    0.0026 H         1 <0>         0.0783
     20 H2         -0.5455    1.8639   -0.8728 H         1 <0>         0.0731
     21 H3         -0.5286    1.8543    0.9071 H         1 <0>         0.0726
     22 H4         -0.0068   -0.1377   -2.1319 H         1 <0>         0.1347
     23 H5          0.0273   -2.5970   -2.1564 H         1 <0>         0.1274
     24 H6          0.0485   -2.6203    2.1317 H         1 <0>         0.1342
     25 H7          0.0244   -0.1607    2.1343 H         1 <0>         0.1331
     26 H8          0.1111   -7.9193   -0.7971 H         1 <0>         0.1956
     27 H9         -0.4931   -6.9093    2.7939 H         1 <0>         0.1028
     28 H10        -0.3185   -8.2951    1.6905 H         1 <0>         0.0766
     29 H11         1.3507   -9.4586    1.5026 H         1 <0>         0.1153
     30 H12         2.8209   -8.4911    1.0567 H         1 <0>         0.1091
     31 H13         2.6918  -10.1012    3.4543 H         1 <0>         0.1637
     32 H14         1.7757   -7.6002    4.5783 H         1 <0>         0.1126
     33 H15         0.6340   -8.8477    3.9174 H         1 <0>         0.1156
     34 H16         3.9178   -7.4072    3.3677 H         1 <0>         0.4415
     35 H17         4.3609   -8.6671    4.3327 H         1 <0>         0.4397
     36 H18         4.6685   -8.7206    2.7148 H         1 <0>         0.4387
@<TRIPOS>BOND
     1    1    2 1
     2    1   19 1
     3    1   20 1
     4    1   21 1
     5    2    7 ar
     6    2    3 ar
     7    3    4 ar
     8    3   22 1
     9    4    5 ar
    10    4   23 1
    11    5    6 ar
    12    5    8 1
    13    6    7 ar
    14    6   24 1
    15    7   25 1
    16    8   12 1
    17    8    9 2
    18    9   10 1
    19   10   11 2
    20   10   13 1
    21   11   12 1
    22   11   26 1
    23   13   14 1
    24   13   27 1
    25   13   28 1
    26   14   17 1
    27   14   15 1
    28   15   16 1
    29   15   29 1
    30   15   30 1
    31   16   17 1
    32   16   18 1
    33   16   31 1
    34   17   32 1
    35   17   33 1
    36   18   34 1
    37   18   35 1
    38   18   36 1
@<TRIPOS>MOLECULE
ZINC40420000
   33    34     0     0     0
SMALL
USER_CHARGES

@<TRIPOS>ATOM
      1 C1         -0.0187    1.5258    0.0104 C.3       1 <0>        -0.1843
      2 C2          0.0021   -0.0041    0.0020 C.3       1 <0>         0.0244
      3 C3          0.7421   -0.5109    1.2415 C.3       1 <0>        -0.1856
      4 N1         -1.3761   -0.5125    0.0124 N.4       1 <0>        -0.5067
      5 C4         -1.3591   -1.9758   -0.1163 C.3       1 <0>         0.0740
      6 C5         -2.7729   -2.4974   -0.1056 C.2       1 <0>        -0.0086
      7 C6         -3.4212   -2.7316   -1.2774 C.2       1 <0>        -0.1802
      8 S1         -4.9985   -3.3168   -0.6707 S.3       1 <0>         0.1016
      9 C7         -4.6233   -3.1860    1.0726 C.2       1 <0>         0.1771
     10 N2         -3.3786   -2.7315    1.0349 N.2       1 <0>        -0.5036
     11 C8         -5.4711   -3.5042    2.2414 C.ar      1 <0>        -0.0264
     12 C9         -4.9789   -3.3214    3.5345 C.ar      1 <0>        -0.0581
     13 C10        -5.7747   -3.6196    4.6210 C.ar      1 <0>        -0.0914
     14 C11        -7.0592   -4.0999    4.4307 C.ar      1 <0>        -0.0636
     15 C12        -7.5529   -4.2838    3.1504 C.ar      1 <0>        -0.0863
     16 C13        -6.7687   -3.9832    2.0560 C.ar      1 <0>        -0.0783
     17 Br1        -8.1434   -4.5069    5.9256 Br        1 <0>        -0.0229
     18 H1          1.0039    1.9031    0.0027 H         1 <0>         0.1080
     19 H2         -0.5459    1.8868   -0.8726 H         1 <0>         0.0816
     20 H3         -0.5289    1.8773    0.9072 H         1 <0>         0.0815
     21 H4          0.5123   -0.3556   -0.8948 H         1 <0>         0.1404
     22 H5          0.2319   -0.1594    2.1383 H         1 <0>         0.0825
     23 H6          0.7568   -1.6008    1.2356 H         1 <0>         0.0818
     24 H7          1.7647   -0.1336    1.2338 H         1 <0>         0.1068
     25 H8         -1.8225   -0.2564    0.8803 H         1 <0>         0.4290
     26 H9         -0.8769   -2.2525   -1.0538 H         1 <0>         0.1458
     27 H10        -0.8062   -2.4075    0.7180 H         1 <0>         0.1466
     28 H11        -3.0787   -2.6001   -2.2932 H         1 <0>         0.2113
     29 H12        -3.9768   -2.9475    3.6841 H         1 <0>         0.1440
     30 H13        -5.3949   -3.4785    5.6221 H         1 <0>         0.1468
     31 H14        -8.5554   -4.6594    3.0082 H         1 <0>         0.1485
     32 H15        -7.1566   -4.1225    1.0578 H         1 <0>         0.1382
     33 H16        -1.8879   -0.1129   -0.7598 H         1 <0>         0.4261
@<TRIPOS>BOND
     1    1    2 1
     2    1   18 1
     3    1   19 1
     4    1   20 1
     5    2    3 1
     6    2    4 1
     7    2   21 1
     8    3   22 1
     9    3   23 1
    10    3   24 1
    11    4    5 1
    12    4   25 1
    13    4   33 1
    14    5    6 1
    15    5   26 1
    16    5   27 1
    17    6   10 1
    18    6    7 2
    19    7    8 1
    20    7   28 1
    21    8    9 1
    22    9   10 2
    23    9   11 1
    24   11   16 ar
    25   11   12 ar
    26   12   13 ar
    27   12   29 1
    28   13   14 ar
    29   13   30 1
    30   14   15 ar
    31   14   17 1
    32   15   16 ar
    33   15   31 1
    34   16   32 1
@<TRIPOS>MOLECULE
ZINC49825573
   43    44     0     0     0
SMALL
USER_CHARGES

@<TRIPOS>ATOM
      1 C1         -3.5690   -1.7379   -3.3856 C.3       1 <0>        -0.1277
      2 C2         -2.6365   -2.7670   -2.8005 C.ar      1 <0>        -0.0443
      3 C3         -1.4770   -3.1079   -3.4739 C.ar      1 <0>        -0.1189
      4 C4         -0.6189   -4.0490   -2.9433 C.ar      1 <0>        -0.0774
      5 C5         -0.9226   -4.6574   -1.7248 C.ar      1 <0>        -0.0521
      6 C6         -2.0938   -4.3092   -1.0506 C.ar      1 <0>        -0.0559
      7 C7         -2.9408   -3.3627   -1.5894 C.ar      1 <0>        -0.1238
      8 C8         -0.0077   -5.6673   -1.1506 C.2       1 <0>         0.1921
      9 N1         -0.1157   -6.3560   -0.0231 N.2       1 <0>        -0.5013
     10 C9          0.8017   -7.2225    0.3366 C.2       1 <0>         0.0363
     11 C10         1.8885   -7.4262   -0.4546 C.2       1 <0>        -0.2284
     12 S1          1.5384   -6.2939   -1.7940 S.3       1 <0>         0.0869
     13 C11         0.6512   -7.9902    1.6246 C.3       1 <0>         0.0605
     14 N2          1.7883   -7.6947    2.5065 N.4       1 <0>        -0.3791
     15 C12         1.7672   -8.6094    3.6558 C.3       1 <0>        -0.0171
     16 C13         3.0653   -8.4586    4.4515 C.3       1 <0>         0.0512
     17 O1          3.0714   -7.1947    5.1181 O.3       1 <0>        -0.5718
     18 C14         1.6916   -6.3083    2.9822 C.3       1 <0>         0.0247
     19 C15         1.6395   -5.3600    1.7827 C.3       1 <0>        -0.2108
     20 C16         0.4209   -6.1434    3.8183 C.3       1 <0>        -0.1741
     21 H1         -3.2836   -0.7468   -3.0330 H         1 <0>         0.0812
     22 H2         -3.5071   -1.7683   -4.4735 H         1 <0>         0.0749
     23 H3         -4.5907   -1.9542   -3.0737 H         1 <0>         0.0746
     24 H4         -1.2432   -2.6365   -4.4170 H         1 <0>         0.1373
     25 H5          0.2858   -4.3145   -3.4701 H         1 <0>         0.1282
     26 H6         -2.3347   -4.7767   -0.1074 H         1 <0>         0.1356
     27 H7         -3.8453   -3.0890   -1.0665 H         1 <0>         0.1360
     28 H8          2.7285   -8.0906   -0.3149 H         1 <0>         0.2034
     29 H9         -0.2760   -7.6964    2.1165 H         1 <0>         0.1481
     30 H10         0.6260   -9.0586    1.4100 H         1 <0>         0.1440
     31 H11         0.9186   -8.3687    4.2961 H         1 <0>         0.1456
     32 H12         1.6754   -9.6361    3.3015 H         1 <0>         0.1447
     33 H13         3.1346   -9.2585    5.1886 H         1 <0>         0.0978
     34 H14         3.9162   -8.5154    3.7726 H         1 <0>         0.0694
     35 H15         3.8972   -6.9982    5.5811 H         1 <0>         0.4043
     36 H16         2.5623   -6.0726    3.5941 H         1 <0>         0.1552
     37 H17         1.8560   -4.3440    2.1130 H         1 <0>         0.0937
     38 H18         2.3798   -5.6674    1.0440 H         1 <0>         0.0691
     39 H19         0.6456   -5.3929    1.3364 H         1 <0>         0.1111
     40 H20         0.4055   -6.8947    4.6078 H         1 <0>         0.0819
     41 H21         0.4053   -5.1484    4.2632 H         1 <0>         0.1006
     42 H22        -0.4532   -6.2695    3.1795 H         1 <0>         0.0778
     43 H23         2.6502   -7.8158    1.9960 H         1 <0>         0.4166
@<TRIPOS>BOND
     1    1    2 1
     2    1   21 1
     3    1   22 1
     4    1   23 1
     5    2    7 ar
     6    2    3 ar
     7    3    4 ar
     8    3   24 1
     9    4    5 ar
    10    4   25 1
    11    5    6 ar
    12    5    8 1
    13    6    7 ar
    14    6   26 1
    15    7   27 1
    16    8   12 1
    17    8    9 2
    18    9   10 1
    19   10   11 2
    20   10   13 1
    21   11   12 1
    22   11   28 1
    23   13   14 1
    24   13   29 1
    25   13   30 1
    26   14   15 1
    27   14   18 1
    28   14   43 1
    29   15   16 1
    30   15   31 1
    31   15   32 1
    32   16   17 1
    33   16   33 1
    34   16   34 1
    35   17   35 1
    36   18   19 1
    37   18   20 1
    38   18   36 1
    39   19   37 1
    40   19   38 1
    41   19   39 1
    42   20   40 1
    43   20   41 1
    44   20   42 1
@<TRIPOS>MOLECULE
ZINC40473708
   28    29     0     0     0
SMALL
USER_CHARGES

@<TRIPOS>ATOM
      1 C1         -0.0178    1.4608    0.0101 C.3       1 <0>         0.0838
      2 N1          0.0021   -0.0041    0.0020 N.am      1 <0>        -0.6069
      3 C2          0.0241   -0.7433    1.2666 C.3       1 <0>         0.0976
      4 C3          0.0001   -0.6716   -1.1688 C.2       1 <0>         0.5866
      5 O1         -0.0182   -0.0579   -2.2187 O.2       1 <0>        -0.5369
      6 C4          0.0200   -2.1446   -1.1769 C.2       1 <0>        -0.0128
      7 C5          0.0234   -2.8325   -2.3615 C.2       1 <0>        -0.1973
      8 S1          0.0485   -4.4360   -1.8507 S.3       1 <0>         0.1729
      9 C6          0.0536   -4.1421   -0.0910 C.2       1 <0>         0.1060
     10 N2          0.0406   -2.8227   -0.0379 N.2       1 <0>        -0.4519
     11 C7          0.0726   -5.1205    1.0183 C.ar      1 <0>        -0.0155
     12 C8          0.0671   -4.6790    2.3419 C.ar      1 <0>        -0.0734
     13 C9          0.0844   -5.5966    3.3721 C.ar      1 <0>        -0.1187
     14 C10         0.1076   -6.9519    3.0949 C.ar      1 <0>        -0.1000
     15 C11         0.1136   -7.3960    1.7847 C.ar      1 <0>        -0.1157
     16 C12         0.0902   -6.4886    0.7455 C.ar      1 <0>        -0.0945
     17 H1          1.0048    1.8381    0.0023 H         1 <0>         0.0574
     18 H2         -0.5450    1.8219   -0.8730 H         1 <0>         0.0777
     19 H3         -0.5280    1.8123    0.9069 H         1 <0>         0.0730
     20 H4          0.0224   -0.0395    2.0990 H         1 <0>         0.0644
     21 H5         -0.8567   -1.3823    1.3294 H         1 <0>         0.0699
     22 H6          0.9230   -1.3581    1.3125 H         1 <0>         0.0700
     23 H7          0.0122   -2.4439   -3.3691 H         1 <0>         0.2098
     24 H8          0.0497   -3.6213    2.5595 H         1 <0>         0.1344
     25 H9          0.0801   -5.2562    4.3970 H         1 <0>         0.1316
     26 H10         0.1214   -7.6661    3.9049 H         1 <0>         0.1291
     27 H11         0.1321   -8.4552    1.5749 H         1 <0>         0.1322
     28 H12         0.0904   -6.8366   -0.2769 H         1 <0>         0.1273
@<TRIPOS>BOND
     1    1    2 1
     2    1   17 1
     3    1   18 1
     4    1   19 1
     5    2    3 1
     6    2    4 am
     7    3   20 1
     8    3   21 1
     9    3   22 1
    10    4    5 2
    11    4    6 1
    12    6   10 1
    13    6    7 2
    14    7    8 1
    15    7   23 1
    16    8    9 1
    17    9   10 2
    18    9   11 1
    19   11   16 ar
    20   11   12 ar
    21   12   13 ar
    22   12   24 1
    23   13   14 ar
    24   13   25 1
    25   14   15 ar
    26   14   26 1
    27   15   16 ar
    28   15   27 1
    29   16   28 1
@<TRIPOS>MOLECULE
ZINC40999794
   38    40     0     0     0
SMALL
USER_CHARGES

@<TRIPOS>ATOM
      1 C1         -0.0167    1.3781    0.0096 C.ar      1 <0>        -0.1036
      2 C2          1.1709    2.0855    0.0021 C.ar      1 <0>        -0.1219
      3 C3          2.3773    1.4107   -0.0130 C.ar      1 <0>        -0.0942
      4 C4          2.3960    0.0285   -0.0201 C.ar      1 <0>        -0.1067
      5 C5          1.2084   -0.6789   -0.0117 C.ar      1 <0>        -0.0940
      6 C6          0.0021   -0.0041    0.0020 C.ar      1 <0>        -0.1216
      7 C7          3.7112   -0.7071   -0.0376 C.3       1 <0>         0.0999
      8 O1          4.1410   -0.9464    1.3041 O.3       1 <0>        -0.2989
      9 C8          5.3182   -1.6047    1.4665 C.ar      1 <0>         0.1735
     10 C9          6.0462   -2.0064    0.3542 C.ar      1 <0>        -0.2097
     11 C10         7.2411   -2.6746    0.5148 C.ar      1 <0>        -0.0365
     12 C11         7.7191   -2.9474    1.7977 C.ar      1 <0>        -0.0890
     13 C12         6.9844   -2.5420    2.9133 C.ar      1 <0>        -0.0189
     14 C13         5.7932   -1.8693    2.7444 C.ar      1 <0>        -0.1552
     15 C14         8.9998   -3.6642    1.9743 C.2       1 <0>         0.1998
     16 N1          9.6173   -4.0206    3.0921 N.2       1 <0>        -0.5170
     17 C15        10.7632   -4.6607    3.0629 C.2       1 <0>        -0.0098
     18 C16        11.3365   -4.9692    1.8701 C.2       1 <0>        -0.1886
     19 S1         10.1293   -4.2910    0.7382 S.3       1 <0>         0.0828
     20 C17        11.4418   -5.0524    4.3502 C.3       1 <0>         0.0794
     21 N2         12.2447   -3.9253    4.8431 N.4       1 <0>        -0.6348
     22 H1         -0.9591    1.9053    0.0259 H         1 <0>         0.1276
     23 H2          1.1563    3.1654    0.0076 H         1 <0>         0.1280
     24 H3          3.3051    1.9634   -0.0196 H         1 <0>         0.1242
     25 H4          1.2231   -1.7588   -0.0176 H         1 <0>         0.1246
     26 H5         -0.9258   -0.5567    0.0082 H         1 <0>         0.1281
     27 H6          3.5884   -1.6586   -0.5549 H         1 <0>         0.0776
     28 H7          4.4573   -0.1052   -0.5563 H         1 <0>         0.0774
     29 H8          5.6756   -1.7952   -0.6380 H         1 <0>         0.1430
     30 H9          7.8065   -2.9869   -0.3507 H         1 <0>         0.1318
     31 H10         7.3508   -2.7516    3.9073 H         1 <0>         0.1420
     32 H11         5.2263   -1.5515    3.6070 H         1 <0>         0.1451
     33 H12        12.2629   -5.4844    1.6629 H         1 <0>         0.2091
     34 H13        10.6884   -5.3141    5.0931 H         1 <0>         0.1469
     35 H14        12.0903   -5.9103    4.1726 H         1 <0>         0.1476
     36 H15        12.9421   -3.6830    4.1554 H         1 <0>         0.4335
     37 H16        11.6444   -3.1311    5.0075 H         1 <0>         0.4384
     38 H17        12.6991   -4.1875    5.7050 H         1 <0>         0.4400
@<TRIPOS>BOND
     1    1    6 ar
     2    1    2 ar
     3    1   22 1
     4    2    3 ar
     5    2   23 1
     6    3    4 ar
     7    3   24 1
     8    4    5 ar
     9    4    7 1
    10    5    6 ar
    11    5   25 1
    12    6   26 1
    13    7    8 1
    14    7   27 1
    15    7   28 1
    16    8    9 1
    17    9   14 ar
    18    9   10 ar
    19   10   11 ar
    20   10   29 1
    21   11   12 ar
    22   11   30 1
    23   12   13 ar
    24   12   15 1
    25   13   14 ar
    26   13   31 1
    27   14   32 1
    28   15   19 1
    29   15   16 2
    30   16   17 1
    31   17   18 2
    32   17   20 1
    33   18   19 1
    34   18   33 1
    35   20   21 1
    36   20   34 1
    37   20   35 1
    38   21   36 1
    39   21   37 1
    40   21   38 1
@<TRIPOS>MOLECULE
ZINC94902817
   45    46     0     0     0
SMALL
USER_CHARGES

@<TRIPOS>ATOM
      1 C1         -0.0187    1.5258    0.0104 C.3       1 <0>        -0.1511
      2 C2          0.0021   -0.0041    0.0020 C.3       1 <0>        -0.0900
      3 C3          0.7421   -0.5109    1.2415 C.3       1 <0>        -0.1534
      4 C4         -1.4333   -0.5336    0.0129 C.3       1 <0>        -0.0886
      5 C5         -1.4159   -2.0348   -0.1192 C.ar      1 <0>        -0.0371
      6 C6         -1.4498   -2.6162   -1.3741 C.ar      1 <0>        -0.1151
      7 C7         -1.4337   -3.9898   -1.5019 C.ar      1 <0>        -0.0787
      8 C8         -1.3831   -4.7930   -0.3619 C.ar      1 <0>        -0.0506
      9 C9         -1.3491   -4.2003    0.9010 C.ar      1 <0>        -0.0591
     10 C10        -1.3604   -2.8253    1.0148 C.ar      1 <0>        -0.1185
     11 C11        -1.3660   -6.2659   -0.4915 C.2       1 <0>         0.1904
     12 N1         -1.3256   -7.1933    0.4548 N.2       1 <0>        -0.5114
     13 C12        -1.3162   -8.4712    0.1566 C.2       1 <0>        -0.0061
     14 C13        -1.3482   -8.8634   -1.1448 C.2       1 <0>        -0.1867
     15 S1         -1.4022   -7.2758   -1.9666 S.3       1 <0>         0.0880
     16 C14        -1.2694   -9.5022    1.2547 C.3       1 <0>         0.0742
     17 N2          0.1259   -9.7292    1.6542 N.4       1 <0>        -0.5066
     18 C15         0.1714  -10.7342    2.7246 C.3       1 <0>         0.0244
     19 C16         1.6290  -11.0622    3.0545 C.3       1 <0>        -0.1842
     20 C17        -0.5221  -10.1827    3.9719 C.3       1 <0>        -0.1854
     21 H1          1.0039    1.9031    0.0027 H         1 <0>         0.0589
     22 H2         -0.5459    1.8868   -0.8726 H         1 <0>         0.0573
     23 H3         -0.5289    1.8773    0.9072 H         1 <0>         0.0574
     24 H4          0.5123   -0.3556   -0.8948 H         1 <0>         0.0720
     25 H5          0.7568   -1.6008    1.2356 H         1 <0>         0.0552
     26 H6          1.7647   -0.1336    1.2338 H         1 <0>         0.0569
     27 H7          0.2319   -0.1594    2.1383 H         1 <0>         0.0567
     28 H8         -1.9156   -0.2570    0.9504 H         1 <0>         0.0802
     29 H9         -1.9862   -0.1019   -0.8214 H         1 <0>         0.0806
     30 H10        -1.4893   -1.9934   -2.2556 H         1 <0>         0.1366
     31 H11        -1.4605   -4.4425   -2.4821 H         1 <0>         0.1281
     32 H12        -1.3102   -4.8164    1.7871 H         1 <0>         0.1338
     33 H13        -1.3296   -2.3653    1.9914 H         1 <0>         0.1351
     34 H14        -1.3457   -9.8581   -1.5656 H         1 <0>         0.2093
     35 H15        -1.8395   -9.1455    2.1125 H         1 <0>         0.1458
     36 H16        -1.7008  -10.4363    0.8947 H         1 <0>         0.1450
     37 H17         0.6536  -10.0594    0.8601 H         1 <0>         0.4259
     38 H18        -0.3390  -11.6392    2.3952 H         1 <0>         0.1402
     39 H19         2.1395  -10.1572    3.3839 H         1 <0>         0.0813
     40 H20         1.6628  -11.8079    3.8488 H         1 <0>         0.1078
     41 H21         2.1231  -11.4551    2.1660 H         1 <0>         0.0815
     42 H22        -1.5605   -9.9490    3.7368 H         1 <0>         0.0818
     43 H23        -0.4883  -10.9284    4.7661 H         1 <0>         0.1065
     44 H24        -0.0116   -9.2777    4.3012 H         1 <0>         0.0824
     45 H25         0.5252   -8.8645    1.9874 H         1 <0>         0.4290
@<TRIPOS>BOND
     1    1    2 1
     2    1   21 1
     3    1   22 1
     4    1   23 1
     5    2    3 1
     6    2    4 1
     7    2   24 1
     8    3   25 1
     9    3   26 1
    10    3   27 1
    11    4    5 1
    12    4   28 1
    13    4   29 1
    14    5   10 ar
    15    5    6 ar
    16    6    7 ar
    17    6   30 1
    18    7    8 ar
    19    7   31 1
    20    8    9 ar
    21    8   11 1
    22    9   10 ar
    23    9   32 1
    24   10   33 1
    25   11   15 1
    26   11   12 2
    27   12   13 1
    28   13   14 2
    29   13   16 1
    30   14   15 1
    31   14   34 1
    32   16   17 1
    33   16   35 1
    34   16   36 1
    35   17   18 1
    36   17   37 1
    37   17   45 1
    38   18   19 1
    39   18   20 1
    40   18   38 1
    41   19   39 1
    42   19   40 1
    43   19   41 1
    44   20   42 1
    45   20   43 1
    46   20   44 1
@<TRIPOS>MOLECULE
ZINC44298245
   23    24     0     0     0
SMALL
USER_CHARGES

@<TRIPOS>ATOM
      1 C1          2.1857   -1.6282   -2.1056 C.3       1 <0>        -0.0846
      2 C2          1.3426   -1.3640   -0.8848 C.2       1 <0>         0.0553
      3 C3          0.6747   -0.1871   -0.7608 C.2       1 <0>        -0.2089
      4 S1         -0.1246   -0.4258    0.8211 S.3       1 <0>        -0.0022
      5 C4          0.5163   -2.0634    1.1442 C.2       1 <0>         0.1761
      6 N1          1.2478   -2.2728    0.0581 N.2       1 <0>        -0.5029
      7 C5          0.2881   -2.9473    2.3057 C.ar      1 <0>        -0.1086
      8 C6          0.3845   -2.4409    3.6022 C.ar      1 <0>        -0.0376
      9 C7          0.1704   -3.2708    4.6829 C.ar      1 <0>        -0.1796
     10 C8         -0.1397   -4.6061    4.4878 C.ar      1 <0>        -0.0465
     11 C9         -0.2383   -5.1207    3.2097 C.ar      1 <0>        -0.2022
     12 C10        -0.0321   -4.2982    2.1113 C.ar      1 <0>         0.2658
     13 N2         -0.1368   -4.8141    0.8209 N.pl3     1 <0>        -0.8615
     14 H1          1.5740   -2.0999   -2.8746 H         1 <0>         0.0740
     15 H2          2.5824   -0.6861   -2.4840 H         1 <0>         0.0743
     16 H3          3.0107   -2.2897   -1.8411 H         1 <0>         0.0745
     17 H4          0.6373    0.6585   -1.4317 H         1 <0>         0.1973
     18 H5          0.6268   -1.4002    3.7595 H         1 <0>         0.1266
     19 H6          0.2453   -2.8774    5.6859 H         1 <0>         0.1284
     20 H7         -0.3050   -5.2490    5.3397 H         1 <0>         0.1285
     21 H8         -0.4805   -6.1632    3.0651 H         1 <0>         0.1288
     22 H9         -0.0768   -4.2215    0.0553 H         1 <0>         0.4036
     23 H10        -0.2697   -5.7658    0.6883 H         1 <0>         0.4013
@<TRIPOS>BOND
     1    1    2 1
     2    1   14 1
     3    1   15 1
     4    1   16 1
     5    2    6 1
     6    2    3 2
     7    3    4 1
     8    3   17 1
     9    4    5 1
    10    5    6 2
    11    5    7 1
    12    7   12 ar
    13    7    8 ar
    14    8    9 ar
    15    8   18 1
    16    9   10 ar
    17    9   19 1
    18   10   11 ar
    19   10   20 1
    20   11   12 ar
    21   11   21 1
    22   12   13 1
    23   13   22 1
    24   13   23 1
@<TRIPOS>MOLECULE
ZINC04245342
   23    24     0     0     0
SMALL
USER_CHARGES
3-(4-methylthiazol-2-yl)aniline
@<TRIPOS>ATOM
      1 C1         -2.1553    8.3635    0.0666 C.3       1 <0>        -0.0848
      2 C2         -0.9544    7.4532    0.0509 C.2       1 <0>         0.0581
      3 C3          0.2991    7.9798    0.0421 C.2       1 <0>        -0.2055
      4 S1          1.2839    6.4869    0.0315 S.3       1 <0>         0.0038
      5 C4         -0.0777    5.3280    0.0309 C.2       1 <0>         0.1618
      6 N1         -1.1167    6.1511    0.0452 N.2       1 <0>        -0.4944
      7 C5         -0.0517    3.8494    0.0232 C.ar      1 <0>         0.0279
      8 C6         -1.2469    3.1280    0.0308 C.ar      1 <0>        -0.1263
      9 C7         -1.2203    1.7484    0.0174 C.ar      1 <0>        -0.0719
     10 C8         -0.0126    1.0758    0.0080 C.ar      1 <0>        -0.1771
     11 C9          1.1828    1.7848    0.0004 C.ar      1 <0>         0.2174
     12 C10         1.1664    3.1715    0.0080 C.ar      1 <0>        -0.1724
     13 N2          2.4007    1.1007   -0.0145 N.pl3     1 <0>        -0.8770
     14 H1         -2.4354    8.5776    1.0980 H         1 <0>         0.0752
     15 H2         -1.9120    9.2948   -0.4447 H         1 <0>         0.0746
     16 H3         -2.9872    7.8763   -0.4421 H         1 <0>         0.0755
     17 H4          0.6131    9.0131    0.0445 H         1 <0>         0.1992
     18 H5         -2.1924    3.6498    0.0426 H         1 <0>         0.1329
     19 H6         -2.1461    1.1922    0.0187 H         1 <0>         0.1315
     20 H7          0.0021   -0.0041    0.0020 H         1 <0>         0.1262
     21 H8          2.0941    3.7244    0.0017 H         1 <0>         0.1246
     22 H9          2.4122    0.1308   -0.0195 H         1 <0>         0.4011
     23 H10         3.2350    1.5956   -0.0198 H         1 <0>         0.3997
@<TRIPOS>BOND
     1    1    2 1
     2    1   14 1
     3    1   15 1
     4    1   16 1
     5    2    6 1
     6    2    3 2
     7    3    4 1
     8    3   17 1
     9    4    5 1
    10    5    6 2
    11    5    7 1
    12    7   12 ar
    13    7    8 ar
    14    8    9 ar
    15    8   18 1
    16    9   10 ar
    17    9   19 1
    18   10   11 ar
    19   10   20 1
    20   11   12 ar
    21   11   13 1
    22   12   21 1
    23   13   22 1
    24   13   23 1
@<TRIPOS>MOLECULE
ZINC01718645
   22    23     0     0     0
SMALL
USER_CHARGES
2-(2-phenylthiazol-4-yl)acetonitrile
@<TRIPOS>ATOM
      1 C1          2.3776    1.4189   -0.0135 C.ar      1 <0>        -0.0967
      2 C2          1.1702    2.0943    0.0021 C.ar      1 <0>        -0.1182
      3 C3         -0.0168    1.3913    0.0097 C.ar      1 <0>        -0.0900
      4 C4          0.0021   -0.0041    0.0020 C.ar      1 <0>        -0.0235
      5 C5          1.2232   -0.6793   -0.0133 C.ar      1 <0>        -0.0680
      6 C6          2.4032    0.0356   -0.0207 C.ar      1 <0>        -0.1206
      7 C7         -1.2664   -0.7639    0.0105 C.2       1 <0>         0.1660
      8 N1         -1.4618   -2.0750    0.0054 N.2       1 <0>        -0.4957
      9 C8         -2.6714   -2.5837    0.0147 C.2       1 <0>         0.0547
     10 C9         -3.7528   -1.7598    0.0299 C.2       1 <0>        -0.1882
     11 S1         -2.9498   -0.1617    0.0384 S.3       1 <0>         0.0264
     12 C10        -2.8616   -4.0786    0.0081 C.3       1 <0>         0.0496
     13 C11        -2.1449   -4.6594   -1.1390 C.1       1 <0>         0.2111
     14 N2         -1.5917   -5.1075   -2.0243 N.1       1 <0>        -0.4250
     15 H1          3.3041    1.9738   -0.0197 H         1 <0>         0.1299
     16 H2          1.1570    3.1742    0.0077 H         1 <0>         0.1327
     17 H3         -0.9587    1.9197    0.0170 H         1 <0>         0.1276
     18 H4          1.2446   -1.7590   -0.0189 H         1 <0>         0.1353
     19 H5          3.3490   -0.4857   -0.0325 H         1 <0>         0.1322
     20 H6         -4.8050   -2.0029    0.0387 H         1 <0>         0.2067
     21 H7         -2.4676   -4.4991    0.9333 H         1 <0>         0.1262
     22 H8         -3.9238   -4.3094   -0.0726 H         1 <0>         0.1276
@<TRIPOS>BOND
     1    1    6 ar
     2    1    2 ar
     3    1   15 1
     4    2    3 ar
     5    2   16 1
     6    3    4 ar
     7    3   17 1
     8    4    5 ar
     9    4    7 1
    10    5    6 ar
    11    5   18 1
    12    6   19 1
    13    7   11 1
    14    7    8 2
    15    8    9 1
    16    9   10 2
    17    9   12 1
    18   10   11 1
    19   10   20 1
    20   12   13 1
    21   12   21 1
    22   12   22 1
    23   13   14 3
@<TRIPOS>MOLECULE
ZINC19779225
   23    24     0     0     0
SMALL
USER_CHARGES
4-(4-methylthiazol-2-yl)benzoic acid
@<TRIPOS>ATOM
      1 C1         -6.6978    7.2707    0.0768 C.3       1 <0>        -0.0831
      2 C2         -6.4641    5.7819    0.0665 C.2       1 <0>         0.0646
      3 C3         -7.5223    4.9255    0.0668 C.2       1 <0>        -0.2262
      4 S1         -6.6726    3.3519    0.0456 S.3       1 <0>        -0.0121
      5 C4         -5.0077    4.0038    0.0490 C.2       1 <0>         0.1944
      6 N1         -5.2418    5.3092    0.0577 N.2       1 <0>        -0.5109
      7 C5         -3.7185    3.2827    0.0385 C.ar      1 <0>        -0.0439
      8 C6         -3.6997    1.8855    0.0303 C.ar      1 <0>        -0.1006
      9 C7         -2.5034    1.2159    0.0205 C.ar      1 <0>        -0.0894
     10 C8         -1.3022    1.9311    0.0187 C.ar      1 <0>        -0.0830
     11 C9         -1.3213    3.3290    0.0323 C.ar      1 <0>        -0.0835
     12 C10        -2.5180    3.9980    0.0371 C.ar      1 <0>        -0.0790
     13 C11        -0.0144    1.2108    0.0087 C.2       1 <0>         0.4855
     14 O1          0.0021   -0.0041    0.0020 O.co2     1 <0>        -0.6261
     15 O2          1.1432    1.9003    0.0013 O.co2     1 <0>        -0.7479
     16 H1         -7.7792    7.4720    0.0832 H         1 <0>         0.0711
     17 H2         -6.2467    7.7189   -0.8208 H         1 <0>         0.0737
     18 H3         -6.2381    7.7078    0.9755 H         1 <0>         0.0737
     19 H4         -8.5813    5.1375    0.0733 H         1 <0>         0.1939
     20 H5         -4.6278    1.3331    0.0321 H         1 <0>         0.1212
     21 H6         -2.4890    0.1360    0.0146 H         1 <0>         0.1366
     22 H7         -0.3935    3.8818    0.0350 H         1 <0>         0.1403
     23 H8         -2.5329    5.0778    0.0438 H         1 <0>         0.1306
@<TRIPOS>BOND
     1    1    2 1
     2    1   16 1
     3    1   17 1
     4    1   18 1
     5    2    6 1
     6    2    3 2
     7    3    4 1
     8    3   19 1
     9    4    5 1
    10    5    6 2
    11    5    7 1
    12    7   12 ar
    13    7    8 ar
    14    8    9 ar
    15    8   20 1
    16    9   10 ar
    17    9   21 1
    18   10   11 ar
    19   10   13 1
    20   11   12 ar
    21   11   22 1
    22   12   23 1
    23   13   14 2
    24   13   15 1
@<TRIPOS>MOLECULE
ZINC00073592
   28    30     0     0     0
SMALL
USER_CHARGES
4-(2-chlorophenyl)-2-(4-chlorophenyl)-thiazole
@<TRIPOS>ATOM
      1 C1          8.3555    1.4300    0.8466 C.ar      1 <0>        -0.1153
      2 C2          8.6853    2.4114   -0.0710 C.ar      1 <0>        -0.0995
      3 C3          7.7438    2.8620   -0.9782 C.ar      1 <0>        -0.1131
      4 C4          6.4693    2.3289   -0.9766 C.ar      1 <0>        -0.0085
      5 C5          6.1305    1.3429   -0.0506 C.ar      1 <0>        -0.0183
      6 C6          7.0840    0.8938    0.8612 C.ar      1 <0>        -0.0907
      7 C7          4.7622    0.7699   -0.0400 C.2       1 <0>         0.0966
      8 C8          4.5814   -0.5881    0.0052 C.2       1 <0>        -0.1822
      9 S1          2.7958   -0.6846    0.0034 S.3       1 <0>         0.0288
     10 C9          2.4783    1.0732   -0.0663 C.2       1 <0>         0.1548
     11 N1          3.7078    1.5629   -0.0745 N.2       1 <0>        -0.4702
     12 C10         1.1854    1.7899   -0.0994 C.ar      1 <0>        -0.0119
     13 C11        -0.0127    1.0744   -0.0833 C.ar      1 <0>        -0.0794
     14 C12        -1.2157    1.7483   -0.1206 C.ar      1 <0>        -0.1077
     15 C13        -1.2362    3.1322   -0.1628 C.ar      1 <0>        -0.0179
     16 C14        -0.0505    3.8475   -0.1785 C.ar      1 <0>        -0.1100
     17 C15         1.1586    3.1844   -0.1473 C.ar      1 <0>        -0.0563
     18 Cl1        -2.7541    3.9736   -0.2034 Cl        1 <0>        -0.0591
     19 Cl2         5.2903    2.8896   -2.1210 Cl        1 <0>        -0.0520
     20 H1          9.0949    1.0824    1.5529 H         1 <0>         0.1339
     21 H2          9.6818    2.8277   -0.0786 H         1 <0>         0.1349
     22 H3          8.0065    3.6289   -1.6918 H         1 <0>         0.1368
     23 H4          6.8282    0.1277    1.5781 H         1 <0>         0.1336
     24 H5          5.3145   -1.3805    0.0377 H         1 <0>         0.2027
     25 H6          0.0020   -0.0048   -0.0463 H         1 <0>         0.1372
     26 H7         -2.1435    1.1955   -0.1128 H         1 <0>         0.1436
     27 H8         -0.0726    4.9266   -0.2155 H         1 <0>         0.1431
     28 H9          2.0827    3.7432   -0.1603 H         1 <0>         0.1462
@<TRIPOS>BOND
     1    1    6 ar
     2    1    2 ar
     3    1   20 1
     4    2    3 ar
     5    2   21 1
     6    3    4 ar
     7    3   22 1
     8    4    5 ar
     9    4   19 1
    10    5    6 ar
    11    5    7 1
    12    6   23 1
    13    7   11 1
    14    7    8 2
    15    8    9 1
    16    8   24 1
    17    9   10 1
    18   10   11 2
    19   10   12 1
    20   12   17 ar
    21   12   13 ar
    22   13   14 ar
    23   13   25 1
    24   14   15 ar
    25   14   26 1
    26   15   16 ar
    27   15   18 1
    28   16   17 ar
    29   16   27 1
    30   17   28 1
@<TRIPOS>MOLECULE
ZINC11851559
   34    36     0     0     0
SMALL
USER_CHARGES
[3-[4-(4-chlorophenyl)thiazol-2-yl]phenyl]methanamine
@<TRIPOS>ATOM
      1 C1         -1.0045    3.2355    2.9535 C.ar      1 <0>        -0.1094
      2 C2         -0.3584    2.7799    1.8178 C.ar      1 <0>        -0.0778
      3 C3         -0.7181    1.5718    1.2479 C.ar      1 <0>        -0.1678
      4 C4         -1.7174    0.8081    1.8155 C.ar      1 <0>        -0.0721
      5 C5         -2.3692    1.2594    2.9637 C.ar      1 <0>         0.0021
      6 C6         -2.0051    2.4816    3.5307 C.ar      1 <0>        -0.0394
      7 C7         -3.4413    0.4463    3.5770 C.2       1 <0>         0.1282
      8 N1         -4.1670    0.6937    4.6557 N.2       1 <0>        -0.4741
      9 C8         -5.0967   -0.1486    5.0648 C.2       1 <0>         0.1022
     10 C9         -5.3079   -1.3090    4.3661 C.2       1 <0>        -0.1709
     11 S1         -4.0962   -1.1354    3.0625 S.3       1 <0>         0.0334
     12 C10        -5.9014    0.1542    6.2739 C.ar      1 <0>        -0.0333
     13 C11        -6.8818   -0.7386    6.7028 C.ar      1 <0>        -0.0899
     14 C12        -7.6246   -0.4545    7.8305 C.ar      1 <0>        -0.1080
     15 C13        -7.4039    0.7197    8.5299 C.ar      1 <0>        -0.0241
     16 C14        -6.4349    1.6123    8.1048 C.ar      1 <0>        -0.1114
     17 C15        -5.6834    1.3351    6.9811 C.ar      1 <0>        -0.0721
     18 Cl1        -8.3460    1.0743    9.9443 Cl        1 <0>        -0.0581
     19 C16        -0.0127    1.0858    0.0080 C.3       1 <0>         0.0526
     20 H1         -0.7216    4.1813    3.3915 H         1 <0>         0.1460
     21 H2          0.4274    3.3717    1.3723 H         1 <0>         0.1391
     22 H3         -1.9942   -0.1370    1.3721 H         1 <0>         0.1363
     23 H4         -2.5061    2.8366    4.4193 H         1 <0>         0.1481
     24 H5         -6.0110   -2.1074    4.5520 H         1 <0>         0.2087
     25 H6         -7.0573   -1.6532    6.1558 H         1 <0>         0.1349
     26 H7         -8.3818   -1.1477    8.1661 H         1 <0>         0.1414
     27 H8         -6.2669    2.5274    8.6534 H         1 <0>         0.1395
     28 H9         -4.9279    2.0322    6.6501 H         1 <0>         0.1403
     29 H10         0.0021   -0.0041    0.0020 H         1 <0>         0.1427
     30 H11         1.0099    1.4631    0.0003 H         1 <0>         0.1422
     31 H12        -0.2694    1.2597   -2.0273 H         1 <0>         0.4410
     32 H13        -1.6917    1.2898   -1.1659 H         1 <0>         0.4369
     33 N2         -0.7207    1.5974   -1.1788 N.4       1 <0>        -0.6467
     34 H14        -0.6943    2.6238   -1.1711 H         1 <0>         0.4395
@<TRIPOS>BOND
     1    1    6 ar
     2    1    2 ar
     3    1   20 1
     4    2    3 ar
     5    2   21 1
     6    3    4 ar
     7    3   19 1
     8    4    5 ar
     9    4   22 1
    10    5    6 ar
    11    5    7 1
    12    6   23 1
    13    7   11 1
    14    7    8 2
    15    8    9 1
    16    9   10 2
    17    9   12 1
    18   10   11 1
    19   10   24 1
    20   12   17 ar
    21   12   13 ar
    22   13   14 ar
    23   13   25 1
    24   14   15 ar
    25   14   26 1
    26   15   16 ar
    27   15   18 1
    28   16   17 ar
    29   16   27 1
    30   17   28 1
    31   19   29 1
    32   19   30 1
    33   19   33 1
    34   31   33 1
    35   32   33 1
    36   33   34 1
@<TRIPOS>MOLECULE
ZINC62802529
   32    34     0     0     0
SMALL
USER_CHARGES

@<TRIPOS>ATOM
      1 C1         -0.0178    1.4648    0.0101 C.3       1 <0>        -0.0468
      2 N1          0.0021   -0.0041    0.0020 N.4       1 <0>        -0.5085
      3 C2          0.6897   -0.4778   -1.2066 C.3       1 <0>         0.0766
      4 C3          0.7101   -1.9847   -1.2149 C.2       1 <0>        -0.0094
      5 C4         -0.2481   -2.6750   -1.8887 C.2       1 <0>        -0.1818
      6 S1          0.2636   -4.3567   -1.5593 S.3       1 <0>         0.0927
      7 C5          1.6938   -3.9579   -0.5630 C.2       1 <0>         0.1839
      8 N2          1.6557   -2.6326   -0.5763 N.2       1 <0>        -0.5062
      9 C6          2.6614   -4.8620    0.0936 C.ar      1 <0>        -0.0372
     10 C7          3.7221   -4.3243    0.8439 C.ar      1 <0>        -0.0652
     11 C8          4.6236   -5.1331    1.4563 C.ar      1 <0>        -0.0834
     12 C9          4.5066   -6.5314    1.3463 C.ar      1 <0>         0.1484
     13 C10         3.4404   -7.0835    0.5921 C.ar      1 <0>        -0.1108
     14 C11         2.5144   -6.2335   -0.0292 C.ar      1 <0>        -0.0429
     15 C12         3.3310   -8.4837    0.4875 C.ar      1 <0>        -0.0486
     16 C13         4.2646   -9.2525    1.1226 C.ar      1 <0>        -0.1685
     17 C14         5.2873   -8.6456    1.8476 C.ar      1 <0>         0.1542
     18 N3          5.3859   -7.3415    1.9433 N.ar      1 <0>        -0.4766
     19 H1          1.0047    1.8421    0.0024 H         1 <0>         0.1254
     20 H2         -0.5450    1.8259   -0.8730 H         1 <0>         0.1251
     21 H3         -0.5280    1.8163    0.9069 H         1 <0>         0.1278
     22 H4          0.4901   -0.3383    0.8195 H         1 <0>         0.4334
     23 H5          0.1625   -0.1167   -2.0897 H         1 <0>         0.1460
     24 H6          1.7123   -0.1005   -1.2143 H         1 <0>         0.1455
     25 H7         -1.0862   -2.3092   -2.4633 H         1 <0>         0.2108
     26 H8          3.8211   -3.2526    0.9337 H         1 <0>         0.1411
     27 H9          5.4323   -4.7031    2.0286 H         1 <0>         0.1480
     28 H10         1.6965   -6.6447   -0.6022 H         1 <0>         0.1367
     29 H11         2.5310   -8.9371   -0.0789 H         1 <0>         0.1458
     30 H12         4.2096  -10.3295    1.0629 H         1 <0>         0.1477
     31 H13         6.0186   -9.2657    2.3447 H         1 <0>         0.1688
     32 H14        -0.9445   -0.3533    0.0092 H         1 <0>         0.4283
@<TRIPOS>BOND
     1    1    2 1
     2    1   19 1
     3    1   20 1
     4    1   21 1
     5    2    3 1
     6    2   22 1
     7    2   32 1
     8    3    4 1
     9    3   23 1
    10    3   24 1
    11    4    8 1
    12    4    5 2
    13    5    6 1
    14    5   25 1
    15    6    7 1
    16    7    8 2
    17    7    9 1
    18    9   14 ar
    19    9   10 ar
    20   10   11 ar
    21   10   26 1
    22   11   12 ar
    23   11   27 1
    24   12   18 ar
    25   12   13 ar
    26   13   14 ar
    27   13   15 ar
    28   14   28 1
    29   15   16 ar
    30   15   29 1
    31   16   17 ar
    32   16   30 1
    33   17   18 ar
    34   17   31 1
@<TRIPOS>MOLECULE
ZINC36827734
   32    33     0     0     0
SMALL
USER_CHARGES

@<TRIPOS>ATOM
      1 C1         -0.0169    1.3914    0.0097 C.ar      1 <0>        -0.0560
      2 C2          1.1695    2.0947    0.0021 C.ar      1 <0>        -0.1511
      3 C3          2.3789    1.4182   -0.0135 C.ar      1 <0>         0.1328
      4 C4          2.4033    0.0326   -0.0212 C.ar      1 <0>        -0.1542
      5 C5          1.2228   -0.6804   -0.0137 C.ar      1 <0>        -0.0341
      6 C6          0.0021   -0.0041    0.0020 C.ar      1 <0>        -0.0468
      7 C7         -1.2666   -0.7632    0.0105 C.2       1 <0>         0.1759
      8 N1         -1.4625   -2.0744    0.0109 N.2       1 <0>        -0.5004
      9 C8         -2.6728   -2.5824    0.0199 C.2       1 <0>        -0.0013
     10 C9         -3.7535   -1.7580    0.0291 C.2       1 <0>        -0.1764
     11 S1         -2.9497   -0.1603    0.0311 S.3       1 <0>         0.0786
     12 C10        -2.8638   -4.0772    0.0196 C.3       1 <0>         0.0755
     13 N2         -2.8166   -4.5766   -1.3611 N.4       1 <0>        -0.5084
     14 C11        -3.0028   -6.0337   -1.3614 C.3       1 <0>         0.0143
     15 C12        -2.9536   -6.5538   -2.7995 C.3       1 <0>        -0.2168
     16 C13        -3.1447   -8.0487   -2.7998 C.2       1 <0>         0.4974
     17 O1         -3.3053   -8.6430   -1.7474 O.co2     1 <0>        -0.6866
     18 O2         -3.1386   -8.6638   -3.8525 O.co2     1 <0>        -0.6715
     19 F1          3.5381    2.1119   -0.0217 F         1 <0>        -0.1273
     20 H1         -0.9588    1.9196    0.0260 H         1 <0>         0.1388
     21 H2          1.1559    3.1746    0.0081 H         1 <0>         0.1495
     22 H3          3.3485   -0.4898   -0.0334 H         1 <0>         0.1492
     23 H4          1.2429   -1.7602   -0.0204 H         1 <0>         0.1474
     24 H5         -4.8058   -2.0005    0.0368 H         1 <0>         0.2115
     25 H6         -2.0705   -4.5450    0.6025 H         1 <0>         0.1438
     26 H7         -3.8305   -4.3200    0.4609 H         1 <0>         0.1447
     27 H8         -3.5510   -4.1435   -1.9007 H         1 <0>         0.4200
     28 H9         -2.2095   -6.5016   -0.7785 H         1 <0>         0.1321
     29 H10        -3.9695   -6.2766   -0.9201 H         1 <0>         0.1320
     30 H11        -3.7470   -6.0860   -3.3824 H         1 <0>         0.0810
     31 H12        -1.9870   -6.3110   -3.2408 H         1 <0>         0.0812
     32 H13        -1.9218   -4.3518   -1.7696 H         1 <0>         0.4250
@<TRIPOS>BOND
     1    1    6 ar
     2    1    2 ar
     3    1   20 1
     4    2    3 ar
     5    2   21 1
     6    3    4 ar
     7    3   19 1
     8    4    5 ar
     9    4   22 1
    10    5    6 ar
    11    5   23 1
    12    6    7 1
    13    7   11 1
    14    7    8 2
    15    8    9 1
    16    9   10 2
    17    9   12 1
    18   10   11 1
    19   10   24 1
    20   12   13 1
    21   12   25 1
    22   12   26 1
    23   13   14 1
    24   13   27 1
    25   13   32 1
    26   14   15 1
    27   14   28 1
    28   14   29 1
    29   15   16 1
    30   15   30 1
    31   15   31 1
    32   16   17 2
    33   16   18 1
@<TRIPOS>MOLECULE
ZINC49127568
   42    43     0     0     0
SMALL
USER_CHARGES

@<TRIPOS>ATOM
      1 C1          2.7658   -1.0348   -2.3293 C.3       1 <0>        -0.1759
      2 C2          2.0980   -0.1154   -1.3047 C.3       1 <0>        -0.1520
      3 C3          0.5920   -0.3845   -1.2832 C.3       1 <0>         0.0280
      4 H1          0.4146   -1.4414   -1.0839 H         1 <0>         0.1433
      5 C4         -0.0609    0.4581   -0.1857 C.3       1 <0>        -0.1152
      6 C5         -1.5669    0.1890   -0.1641 C.3       1 <0>        -0.1727
      7 C6          0.5430    0.0864    1.1701 C.3       1 <0>        -0.1540
      8 N1          0.0121   -0.0276   -2.5848 N.4       1 <0>        -0.5055
      9 C7          0.1907    1.4110   -2.8225 C.3       1 <0>         0.0658
     10 C8         -0.3899    1.7742   -4.1649 C.2       1 <0>        -0.0047
     11 C9         -1.6592    2.2529   -4.2507 C.2       1 <0>        -0.1830
     12 S1         -1.7997    2.5010   -6.0163 S.3       1 <0>         0.0964
     13 C10        -0.1568    1.9415   -6.4463 C.2       1 <0>         0.1834
     14 N2          0.3312    1.6339   -5.2527 N.2       1 <0>        -0.5065
     15 C11         0.4861    1.8514   -7.7746 C.ar      1 <0>        -0.0541
     16 C12         1.7927    1.3744   -7.8893 C.ar      1 <0>        -0.0333
     17 C13         2.3878    1.2925   -9.1307 C.ar      1 <0>        -0.1554
     18 C14         1.6908    1.6832  -10.2631 C.ar      1 <0>         0.1388
     19 C15         0.3932    2.1575  -10.1548 C.ar      1 <0>        -0.1499
     20 C16        -0.2134    2.2377   -8.9188 C.ar      1 <0>        -0.0534
     21 F1          2.2786    1.6018  -11.4768 F         1 <0>        -0.1241
     22 H2          2.4999   -2.0702   -2.1161 H         1 <0>         0.0707
     23 H3          2.4251   -0.7711   -3.3306 H         1 <0>         0.0552
     24 H4          3.8479   -0.9182   -2.2712 H         1 <0>         0.0842
     25 H5          2.5158   -0.3085   -0.3167 H         1 <0>         0.1157
     26 H6          2.2774    0.9243   -1.5783 H         1 <0>         0.0889
     27 H7          0.1165    1.5149   -0.3850 H         1 <0>         0.0957
     28 H8         -1.7444   -0.8678    0.0352 H         1 <0>         0.0746
     29 H9         -2.0321    0.7893    0.6178 H         1 <0>         0.0860
     30 H10        -1.9972    0.4538   -1.1299 H         1 <0>         0.0503
     31 H11         1.6159    0.2781    1.1547 H         1 <0>         0.0709
     32 H12         0.0779    0.6867    1.9519 H         1 <0>         0.0777
     33 H13         0.3656   -0.9705    1.3694 H         1 <0>         0.0686
     34 H14         0.4756   -0.5490   -3.3138 H         1 <0>         0.4296
     35 H15        -0.3199    1.9744   -2.0414 H         1 <0>         0.1473
     36 H16         1.2535    1.6523   -2.8090 H         1 <0>         0.1478
     37 H17        -2.3825    2.4331   -3.4693 H         1 <0>         0.2099
     38 H18         2.3369    1.0704   -7.0073 H         1 <0>         0.1452
     39 H19         3.3988    0.9235   -9.2206 H         1 <0>         0.1500
     40 H20        -0.1456    2.4607  -11.0404 H         1 <0>         0.1518
     41 H21        -1.2264    2.6029   -8.8360 H         1 <0>         0.1394
     42 H22        -0.9722   -0.2492   -2.5866 H         1 <0>         0.4245
@<TRIPOS>BOND
     1    1    2 1
     2    1   22 1
     3    1   23 1
     4    1   24 1
     5    2    3 1
     6    2   25 1
     7    2   26 1
     8    3    4 1
     9    3    5 1
    10    3    8 1
    11    5    6 1
    12    5    7 1
    13    5   27 1
    14    6   28 1
    15    6   29 1
    16    6   30 1
    17    7   31 1
    18    7   32 1
    19    7   33 1
    20    8    9 1
    21    8   34 1
    22    8   42 1
    23    9   10 1
    24    9   35 1
    25    9   36 1
    26   10   14 1
    27   10   11 2
    28   11   12 1
    29   11   37 1
    30   12   13 1
    31   13   14 2
    32   13   15 1
    33   15   20 ar
    34   15   16 ar
    35   16   17 ar
    36   16   38 1
    37   17   18 ar
    38   17   39 1
    39   18   19 ar
    40   18   21 1
    41   19   20 ar
    42   19   40 1
    43   20   41 1
@<TRIPOS>MOLECULE
ZINC70842974
   25    26     0     0     0
SMALL
USER_CHARGES

@<TRIPOS>ATOM
      1 C1         -0.0187    1.5258    0.0104 C.3       1 <0>        -0.1788
      2 C2          0.0021   -0.0041    0.0020 C.3       1 <0>         0.1771
      3 H1         -1.0205   -0.3814    0.0098 H         1 <0>         0.1135
      4 C3          0.7309   -0.5033    1.2229 C.2       1 <0>         0.0211
      5 C4          0.1265   -1.3833    2.0642 C.2       1 <0>        -0.1789
      6 S1          1.4141   -1.6112    3.2843 S.3       1 <0>         0.0324
      7 C5          2.6138   -0.5124    2.5425 C.2       1 <0>         0.1472
      8 N1          1.9525   -0.0932    1.4727 N.2       1 <0>        -0.4839
      9 C6          3.9782   -0.1685    2.9967 C.ar      1 <0>        -0.0128
     10 C7          4.7553    0.7288    2.2623 C.ar      1 <0>        -0.0371
     11 C8          6.0272    1.0469    2.6901 C.ar      1 <0>        -0.1394
     12 C9          6.5349    0.4772    3.8468 C.ar      1 <0>         0.1310
     13 C10         5.7677   -0.4153    4.5803 C.ar      1 <0>        -0.0740
     14 C11         4.4911   -0.7355    4.1639 C.ar      1 <0>        -0.0571
     15 Cl1         6.4110   -1.1252    6.0280 Cl        1 <0>        -0.0345
     16 F1          7.7817    0.7919    4.2611 F         1 <0>        -0.1182
     17 O1          0.6709   -0.4649   -1.1737 O.3       1 <0>        -0.5533
     18 H2          1.0039    1.9031    0.0027 H         1 <0>         0.0681
     19 H3         -0.5459    1.8868   -0.8726 H         1 <0>         0.0694
     20 H4         -0.5289    1.8773    0.9072 H         1 <0>         0.0643
     21 H5         -0.8587   -1.8226    2.0110 H         1 <0>         0.2038
     22 H6          4.3612    1.1730    1.3602 H         1 <0>         0.1537
     23 H7          6.6289    1.7411    2.1223 H         1 <0>         0.1566
     24 H8          3.8922   -1.4269    4.7381 H         1 <0>         0.1480
     25 H9          1.5879   -0.1667   -1.2470 H         1 <0>         0.3815
@<TRIPOS>BOND
     1    1    2 1
     2    1   18 1
     3    1   19 1
     4    1   20 1
     5    2    3 1
     6    2    4 1
     7    2   17 1
     8    4    8 1
     9    4    5 2
    10    5    6 1
    11    5   21 1
    12    6    7 1
    13    7    8 2
    14    7    9 1
    15    9   14 ar
    16    9   10 ar
    17   10   11 ar
    18   10   22 1
    19   11   12 ar
    20   11   23 1
    21   12   13 ar
    22   12   16 1
    23   13   14 ar
    24   13   15 1
    25   14   24 1
    26   17   25 1
@<TRIPOS>MOLECULE
ZINC70842966
   25    26     0     0     0
SMALL
USER_CHARGES

@<TRIPOS>ATOM
      1 C1         -0.0187    1.5258    0.0104 C.3       1 <0>        -0.1750
      2 C2          0.0021   -0.0041    0.0020 C.3       1 <0>         0.1747
      3 H1          0.5123   -0.3556   -0.8948 H         1 <0>         0.1173
      4 C3          0.7309   -0.5033    1.2229 C.2       1 <0>         0.0221
      5 C4          0.1265   -1.3833    2.0642 C.2       1 <0>        -0.1847
      6 S1          1.4141   -1.6112    3.2843 S.3       1 <0>         0.0296
      7 C5          2.6138   -0.5124    2.5425 C.2       1 <0>         0.1484
      8 N1          1.9525   -0.0932    1.4727 N.2       1 <0>        -0.4816
      9 C6          3.9782   -0.1685    2.9967 C.ar      1 <0>        -0.0132
     10 C7          4.7553    0.7288    2.2623 C.ar      1 <0>        -0.0369
     11 C8          6.0272    1.0469    2.6901 C.ar      1 <0>        -0.1395
     12 C9          6.5349    0.4772    3.8468 C.ar      1 <0>         0.1311
     13 C10         5.7677   -0.4153    4.5803 C.ar      1 <0>        -0.0742
     14 C11         4.4911   -0.7355    4.1639 C.ar      1 <0>        -0.0569
     15 Cl1         6.4110   -1.1252    6.0280 Cl        1 <0>        -0.0347
     16 F1          7.7817    0.7919    4.2611 F         1 <0>        -0.1182
     17 O1         -1.3386   -0.4987    0.0122 O.3       1 <0>        -0.5525
     18 H2          1.0039    1.9031    0.0027 H         1 <0>         0.0764
     19 H3         -0.5459    1.8868   -0.8726 H         1 <0>         0.0698
     20 H4         -0.5289    1.8773    0.9072 H         1 <0>         0.0565
     21 H5         -0.8587   -1.8226    2.0110 H         1 <0>         0.2053
     22 H6          4.3612    1.1730    1.3602 H         1 <0>         0.1543
     23 H7          6.6289    1.7411    2.1223 H         1 <0>         0.1567
     24 H8          3.8922   -1.4269    4.7381 H         1 <0>         0.1481
     25 H9         -1.8531   -0.2245    0.7836 H         1 <0>         0.3771
@<TRIPOS>BOND
     1    1    2 1
     2    1   18 1
     3    1   19 1
     4    1   20 1
     5    2    3 1
     6    2    4 1
     7    2   17 1
     8    4    8 1
     9    4    5 2
    10    5    6 1
    11    5   21 1
    12    6    7 1
    13    7    8 2
    14    7    9 1
    15    9   14 ar
    16    9   10 ar
    17   10   11 ar
    18   10   22 1
    19   11   12 ar
    20   11   23 1
    21   12   13 ar
    22   12   16 1
    23   13   14 ar
    24   13   15 1
    25   14   24 1
    26   17   25 1
@<TRIPOS>MOLECULE
ZINC52207998
   34    36     0     0     0
SMALL
USER_CHARGES

@<TRIPOS>ATOM
      1 C1         -0.0169    1.3914    0.0097 C.ar      1 <0>        -0.0534
      2 C2          1.1695    2.0947    0.0021 C.ar      1 <0>        -0.1500
      3 C3          2.3789    1.4182   -0.0135 C.ar      1 <0>         0.1390
      4 C4          2.4033    0.0326   -0.0212 C.ar      1 <0>        -0.1555
      5 C5          1.2228   -0.6804   -0.0137 C.ar      1 <0>        -0.0333
      6 C6          0.0021   -0.0041    0.0020 C.ar      1 <0>        -0.0545
      7 C7         -1.2666   -0.7632    0.0105 C.2       1 <0>         0.1834
      8 N1         -1.4625   -2.0744    0.0109 N.2       1 <0>        -0.5075
      9 C8         -2.6728   -2.5824    0.0199 C.2       1 <0>        -0.0079
     10 C9         -3.7535   -1.7580    0.0291 C.2       1 <0>        -0.1821
     11 S1         -2.9497   -0.1603    0.0311 S.3       1 <0>         0.0961
     12 C10        -2.8638   -4.0772    0.0196 C.3       1 <0>         0.0787
     13 N2         -2.8166   -4.5766   -1.3611 N.4       1 <0>        -0.5011
     14 C11        -3.0028   -6.0337   -1.3614 C.3       1 <0>        -0.0090
     15 C12        -1.6939   -6.8221   -1.1884 C.3       1 <0>        -0.1481
     16 C13        -2.2405   -7.8068   -2.2355 C.3       1 <0>        -0.1355
     17 C14        -3.0916   -6.6431   -2.7706 C.3       1 <0>        -0.1492
     18 F1          3.5381    2.1119   -0.0217 F         1 <0>        -0.1240
     19 H1         -0.9588    1.9196    0.0260 H         1 <0>         0.1394
     20 H2          1.1559    3.1746    0.0081 H         1 <0>         0.1519
     21 H3          3.3485   -0.4898   -0.0334 H         1 <0>         0.1502
     22 H4          1.2429   -1.7602   -0.0204 H         1 <0>         0.1452
     23 H5         -4.8058   -2.0005    0.0368 H         1 <0>         0.2105
     24 H6         -2.0705   -4.5450    0.6025 H         1 <0>         0.1441
     25 H7         -3.8305   -4.3200    0.4609 H         1 <0>         0.1447
     26 H8         -3.5510   -4.1435   -1.9007 H         1 <0>         0.4255
     27 H9         -3.8012   -6.3585   -0.6942 H         1 <0>         0.1622
     28 H10        -0.8095   -6.2783   -1.5203 H         1 <0>         0.1045
     29 H11        -1.5756   -7.2599   -0.1972 H         1 <0>         0.1018
     30 H12        -1.4869   -8.1571   -2.9408 H         1 <0>         0.0961
     31 H13        -2.8297   -8.6175   -1.8067 H         1 <0>         0.1020
     32 H14        -4.1017   -6.9363   -3.0567 H         1 <0>         0.1027
     33 H15        -2.5893   -6.0503   -3.5351 H         1 <0>         0.1038
     34 H16        -1.9218   -4.3518   -1.7696 H         1 <0>         0.4292
@<TRIPOS>BOND
     1    1    6 ar
     2    1    2 ar
     3    1   19 1
     4    2    3 ar
     5    2   20 1
     6    3    4 ar
     7    3   18 1
     8    4    5 ar
     9    4   21 1
    10    5    6 ar
    11    5   22 1
    12    6    7 1
    13    7   11 1
    14    7    8 2
    15    8    9 1
    16    9   10 2
    17    9   12 1
    18   10   11 1
    19   10   23 1
    20   12   13 1
    21   12   24 1
    22   12   25 1
    23   13   14 1
    24   13   26 1
    25   13   34 1
    26   14   17 1
    27   14   15 1
    28   14   27 1
    29   15   16 1
    30   15   28 1
    31   15   29 1
    32   16   17 1
    33   16   30 1
    34   16   31 1
    35   17   32 1
    36   17   33 1
@<TRIPOS>MOLECULE
ZINC49127571
   42    43     0     0     0
SMALL
USER_CHARGES

@<TRIPOS>ATOM
      1 C1          1.2561   -2.5011    0.1231 C.3       1 <0>        -0.1753
      2 C2          0.6199   -2.0201   -1.1826 C.3       1 <0>        -0.1515
      3 C3          0.6005   -0.4904   -1.2072 C.3       1 <0>         0.0276
      4 H1          0.1003   -0.1189   -0.3128 H         1 <0>         0.1426
      5 C4         -0.1524   -0.0099   -2.4494 C.3       1 <0>        -0.1137
      6 C5          0.4749   -0.6323   -3.6985 C.3       1 <0>        -0.1726
      7 C6         -1.6198   -0.4318   -2.3514 C.3       1 <0>        -0.1536
      8 N1          1.9789    0.0162   -1.2435 N.4       1 <0>        -0.5072
      9 C7          1.9652    1.4810   -1.1330 C.3       1 <0>         0.0742
     10 C8          3.3803    1.9910   -1.0398 C.2       1 <0>        -0.0067
     11 C9          4.0277    2.4108   -2.1588 C.2       1 <0>        -0.1822
     12 S1          5.6070    2.8864   -1.4675 S.3       1 <0>         0.0971
     13 C10         5.2336    2.4752    0.2320 C.2       1 <0>         0.1834
     14 N2          3.9877    2.0355    0.1229 N.2       1 <0>        -0.5071
     15 C11         6.0834    2.5978    1.4356 C.ar      1 <0>        -0.0543
     16 C12         5.5918    2.2086    2.6825 C.ar      1 <0>        -0.0333
     17 C13         6.3887    2.3250    3.8021 C.ar      1 <0>        -0.1554
     18 C14         7.6753    2.8280    3.6906 C.ar      1 <0>         0.1389
     19 C15         8.1683    3.2159    2.4549 C.ar      1 <0>        -0.1499
     20 C16         7.3819    3.0978    1.3280 C.ar      1 <0>        -0.0534
     21 F1          8.4515    2.9408    4.7906 F         1 <0>        -0.1241
     22 H2          2.3038   -2.2015    0.1488 H         1 <0>         0.0514
     23 H3          0.7304   -2.0572    0.9685 H         1 <0>         0.0719
     24 H4          1.1873   -3.5873    0.1823 H         1 <0>         0.0842
     25 H5          1.2008   -2.3898   -2.0275 H         1 <0>         0.0904
     26 H6         -0.4004   -2.3975   -1.2502 H         1 <0>         0.1161
     27 H7         -0.0902    1.0764   -2.5144 H         1 <0>         0.0943
     28 H8          0.4127   -1.7185   -3.6335 H         1 <0>         0.0770
     29 H9         -0.0615   -0.2899   -4.5835 H         1 <0>         0.0844
     30 H10         1.5203   -0.3317   -3.7683 H         1 <0>         0.0503
     31 H11        -2.0667    0.0116   -1.4616 H         1 <0>         0.0684
     32 H12        -2.1562   -0.0894   -3.2364 H         1 <0>         0.0779
     33 H13        -1.6820   -1.5180   -2.2865 H         1 <0>         0.0702
     34 H14         2.5011   -0.3743   -0.4735 H         1 <0>         0.4292
     35 H15         1.4826    1.9072   -2.0125 H         1 <0>         0.1459
     36 H16         1.4142    1.7728   -0.2390 H         1 <0>         0.1458
     37 H17         3.6837    2.4468   -3.1820 H         1 <0>         0.2103
     38 H18         4.5891    1.8172    2.7705 H         1 <0>         0.1453
     39 H19         6.0093    2.0241    4.7674 H         1 <0>         0.1501
     40 H20         9.1716    3.6072    2.3735 H         1 <0>         0.1519
     41 H21         7.7688    3.3959    0.3647 H         1 <0>         0.1394
     42 H22         2.4127   -0.2513   -2.1143 H         1 <0>         0.4218
@<TRIPOS>BOND
     1    1    2 1
     2    1   22 1
     3    1   23 1
     4    1   24 1
     5    2    3 1
     6    2   25 1
     7    2   26 1
     8    3    4 1
     9    3    5 1
    10    3    8 1
    11    5    6 1
    12    5    7 1
    13    5   27 1
    14    6   28 1
    15    6   29 1
    16    6   30 1
    17    7   31 1
    18    7   32 1
    19    7   33 1
    20    8    9 1
    21    8   34 1
    22    8   42 1
    23    9   10 1
    24    9   35 1
    25    9   36 1
    26   10   14 1
    27   10   11 2
    28   11   12 1
    29   11   37 1
    30   12   13 1
    31   13   14 2
    32   13   15 1
    33   15   20 ar
    34   15   16 ar
    35   16   17 ar
    36   16   38 1
    37   17   18 ar
    38   17   39 1
    39   18   19 ar
    40   18   21 1
    41   19   20 ar
    42   19   40 1
    43   20   41 1
@<TRIPOS>MOLECULE
ZINC35163475
   40    41     0     0     0
SMALL
USER_CHARGES

@<TRIPOS>ATOM
      1 C1         -0.0187    1.5258    0.0104 C.3       1 <0>        -0.1560
      2 C2          0.0021   -0.0041    0.0020 C.3       1 <0>         0.0591
      3 O1          0.6709   -0.4649   -1.1737 O.3       1 <0>        -0.3883
      4 C3          0.7457   -1.8880   -1.2798 C.3       1 <0>         0.0647
      5 C4          1.4779   -2.2655   -2.5691 C.3       1 <0>        -0.1508
      6 C5          1.5580   -3.7892   -2.6827 C.3       1 <0>        -0.0052
      7 N1          2.2609   -4.1517   -3.9206 N.4       1 <0>        -0.5069
      8 C6          2.3378   -5.6146   -4.0296 C.3       1 <0>         0.0785
      9 C7          3.0590   -5.9865   -5.2995 C.2       1 <0>        -0.0093
     10 C8          4.3926   -6.2481   -5.2734 C.2       1 <0>        -0.1812
     11 S1          4.6902   -6.6177   -6.9978 S.3       1 <0>         0.0976
     12 C9          3.0103   -6.3839   -7.5637 C.2       1 <0>         0.1844
     13 N2          2.3993   -6.0635   -6.4317 N.2       1 <0>        -0.5079
     14 C10         2.4520   -6.5174   -8.9262 C.ar      1 <0>        -0.0551
     15 C11         1.0954   -6.2808   -9.1533 C.ar      1 <0>        -0.0329
     16 C12         0.5797   -6.4067  -10.4262 C.ar      1 <0>        -0.1555
     17 C13         1.4059   -6.7680  -11.4786 C.ar      1 <0>         0.1393
     18 C14         2.7536   -7.0041  -11.2585 C.ar      1 <0>        -0.1500
     19 C15         3.2808   -6.8749   -9.9907 C.ar      1 <0>        -0.0532
     20 F1          0.8955   -6.8909  -12.7234 F         1 <0>        -0.1240
     21 H1          1.0039    1.9031    0.0027 H         1 <0>         0.0652
     22 H2         -0.5459    1.8868   -0.8726 H         1 <0>         0.0653
     23 H3         -0.5289    1.8773    0.9072 H         1 <0>         0.0783
     24 H4          0.5293   -0.3651    0.8851 H         1 <0>         0.0539
     25 H5         -1.0205   -0.3814    0.0098 H         1 <0>         0.0540
     26 H6          1.2883   -2.2882   -0.4233 H         1 <0>         0.0596
     27 H7         -0.2614   -2.3044   -1.2986 H         1 <0>         0.0597
     28 H8          0.9353   -1.8654   -3.4255 H         1 <0>         0.0963
     29 H9          2.4851   -1.8492   -2.5502 H         1 <0>         0.0962
     30 H10         2.1006   -4.1894   -1.8262 H         1 <0>         0.1362
     31 H11         0.5508   -4.2056   -2.7015 H         1 <0>         0.1363
     32 H12         1.7586   -3.7813   -4.7134 H         1 <0>         0.4326
     33 H13         2.8804   -6.0148   -3.1731 H         1 <0>         0.1468
     34 H14         1.3307   -6.0310   -4.0485 H         1 <0>         0.1461
     35 H15         5.0816   -6.2359   -4.4419 H         1 <0>         0.2109
     36 H16         0.4506   -5.9999   -8.3337 H         1 <0>         0.1454
     37 H17        -0.4699   -6.2239  -10.6031 H         1 <0>         0.1502
     38 H18         3.3931   -7.2854  -12.0821 H         1 <0>         0.1520
     39 H19         4.3322   -7.0543   -9.8211 H         1 <0>         0.1394
     40 H20         3.1933   -3.7663   -3.9031 H         1 <0>         0.4277
@<TRIPOS>BOND
     1    1    2 1
     2    1   21 1
     3    1   22 1
     4    1   23 1
     5    2    3 1
     6    2   24 1
     7    2   25 1
     8    3    4 1
     9    4    5 1
    10    4   26 1
    11    4   27 1
    12    5    6 1
    13    5   28 1
    14    5   29 1
    15    6    7 1
    16    6   30 1
    17    6   31 1
    18    7    8 1
    19    7   32 1
    20    7   40 1
    21    8    9 1
    22    8   33 1
    23    8   34 1
    24    9   13 1
    25    9   10 2
    26   10   11 1
    27   10   35 1
    28   11   12 1
    29   12   13 2
    30   12   14 1
    31   14   19 ar
    32   14   15 ar
    33   15   16 ar
    34   15   36 1
    35   16   17 ar
    36   16   37 1
    37   17   18 ar
    38   17   20 1
    39   18   19 ar
    40   18   38 1
    41   19   39 1
@<TRIPOS>MOLECULE
ZINC70840029
   27    28     0     0     0
SMALL
USER_CHARGES

@<TRIPOS>ATOM
      1 C1         -0.0187    1.5258    0.0104 C.3       1 <0>        -0.1749
      2 C2          0.0021   -0.0041    0.0020 C.3       1 <0>         0.1099
      3 H1          0.5123   -0.3556   -0.8948 H         1 <0>         0.1579
      4 C3          0.7309   -0.5033    1.2229 C.2       1 <0>         0.0381
      5 C4          0.1265   -1.3831    2.0640 C.2       1 <0>        -0.2679
      6 S1          1.4140   -1.6112    3.2842 S.3       1 <0>         0.1398
      7 C5          2.6140   -0.5124    2.5427 C.2       1 <0>         0.1809
      8 N1          1.9528   -0.0930    1.4727 N.2       1 <0>        -0.4948
      9 C6          3.9778   -0.1686    2.9972 C.ar      1 <0>        -0.0863
     10 C7          4.7555    0.7285    2.2634 C.ar      1 <0>        -0.0041
     11 C8          6.0269    1.0463    2.6919 C.ar      1 <0>        -0.1628
     12 C9          6.5347    0.4772    3.8495 C.ar      1 <0>         0.1715
     13 C10         5.7693   -0.4142    4.5829 C.ar      1 <0>        -0.1884
     14 C11         4.4915   -0.7361    4.1666 C.ar      1 <0>         0.1638
     15 F1          3.7427   -1.6010    4.8853 F         1 <0>        -0.1155
     16 F2          7.7813    0.7930    4.2637 F         1 <0>        -0.1140
     17 N2         -1.3761   -0.5125    0.0124 N.4       1 <0>        -0.6350
     18 H2          1.0039    1.9031    0.0027 H         1 <0>         0.1150
     19 H3         -0.5459    1.8868   -0.8726 H         1 <0>         0.0883
     20 H4         -0.5289    1.8773    0.9072 H         1 <0>         0.0807
     21 H5         -0.8584   -1.8227    2.0104 H         1 <0>         0.1986
     22 H6          4.3620    1.1728    1.3610 H         1 <0>         0.1586
     23 H7          6.6289    1.7402    2.1240 H         1 <0>         0.1594
     24 H8          6.1699   -0.8549    5.4838 H         1 <0>         0.1652
     25 H9         -1.8641   -0.1783   -0.8050 H         1 <0>         0.4441
     26 H10        -1.3624   -1.5214    0.0069 H         1 <0>         0.4369
     27 H11        -1.8484   -0.1871    0.8426 H         1 <0>         0.4352
@<TRIPOS>BOND
     1    1    2 1
     2    1   18 1
     3    1   19 1
     4    1   20 1
     5    2    3 1
     6    2    4 1
     7    2   17 1
     8    4    8 1
     9    4    5 2
    10    5    6 1
    11    5   21 1
    12    6    7 1
    13    7    8 2
    14    7    9 1
    15    9   14 ar
    16    9   10 ar
    17   10   11 ar
    18   10   22 1
    19   11   12 ar
    20   11   23 1
    21   12   13 ar
    22   12   16 1
    23   13   14 ar
    24   13   24 1
    25   14   15 1
    26   17   25 1
    27   17   26 1
    28   17   27 1
@<TRIPOS>MOLECULE
ZINC70840033
   27    28     0     0     0
SMALL
USER_CHARGES

@<TRIPOS>ATOM
      1 C1         -0.0187    1.5258    0.0104 C.3       1 <0>        -0.1773
      2 C2          0.0021   -0.0041    0.0020 C.3       1 <0>         0.1176
      3 H1         -1.0205   -0.3814    0.0098 H         1 <0>         0.1536
      4 C3          0.7309   -0.5033    1.2229 C.2       1 <0>        -0.0100
      5 C4          0.1265   -1.3831    2.0640 C.2       1 <0>        -0.1828
      6 S1          1.4140   -1.6112    3.2842 S.3       1 <0>         0.1324
      7 C5          2.6140   -0.5124    2.5427 C.2       1 <0>         0.1673
      8 N1          1.9528   -0.0930    1.4727 N.2       1 <0>        -0.5082
      9 C6          3.9778   -0.1686    2.9972 C.ar      1 <0>        -0.0825
     10 C7          4.7555    0.7285    2.2634 C.ar      1 <0>        -0.0087
     11 C8          6.0269    1.0463    2.6919 C.ar      1 <0>        -0.1631
     12 C9          6.5347    0.4772    3.8495 C.ar      1 <0>         0.1695
     13 C10         5.7693   -0.4142    4.5829 C.ar      1 <0>        -0.1873
     14 C11         4.4915   -0.7361    4.1666 C.ar      1 <0>         0.1628
     15 F1          3.7427   -1.6010    4.8853 F         1 <0>        -0.1147
     16 F2          7.7813    0.7930    4.2637 F         1 <0>        -0.1143
     17 N2          0.6897   -0.4778   -1.2066 N.4       1 <0>        -0.6341
     18 H2          1.0039    1.9031    0.0027 H         1 <0>         0.0898
     19 H3         -0.5459    1.8868   -0.8726 H         1 <0>         0.0865
     20 H4         -0.5289    1.8773    0.9072 H         1 <0>         0.1038
     21 H5         -0.8584   -1.8227    2.0104 H         1 <0>         0.2110
     22 H6          4.3620    1.1728    1.3610 H         1 <0>         0.1555
     23 H7          6.6289    1.7402    2.1240 H         1 <0>         0.1582
     24 H8          6.1699   -0.8549    5.4838 H         1 <0>         0.1650
     25 H9          0.7033   -1.4867   -1.2121 H         1 <0>         0.4349
     26 H10         0.2017   -0.1436   -2.0240 H         1 <0>         0.4376
     27 H11         1.6363   -0.1286   -1.2138 H         1 <0>         0.4377
@<TRIPOS>BOND
     1    1    2 1
     2    1   18 1
     3    1   19 1
     4    1   20 1
     5    2    3 1
     6    2    4 1
     7    2   17 1
     8    4    8 1
     9    4    5 2
    10    5    6 1
    11    5   21 1
    12    6    7 1
    13    7    8 2
    14    7    9 1
    15    9   14 ar
    16    9   10 ar
    17   10   11 ar
    18   10   22 1
    19   11   12 ar
    20   11   23 1
    21   12   13 ar
    22   12   16 1
    23   13   14 ar
    24   13   24 1
    25   14   15 1
    26   17   25 1
    27   17   26 1
    28   17   27 1
@<TRIPOS>MOLECULE
ZINC02647760
   21    22     0     0     0
SMALL
USER_CHARGES
4-(chloromethyl)-2-(4-fluorophenyl)-thiazole
@<TRIPOS>ATOM
      1 C1         -0.0126    1.0758    0.0080 C.ar      1 <0>        -0.0610
      2 C2         -1.2155    1.7503    0.0173 C.ar      1 <0>        -0.1511
      3 C3         -1.2356    3.1360    0.0308 C.ar      1 <0>         0.1220
      4 C4         -0.0486    3.8512    0.0233 C.ar      1 <0>        -0.1535
      5 C5          1.1597    3.1866    0.0081 C.ar      1 <0>        -0.0387
      6 C6          1.1857    1.7913    0.0004 C.ar      1 <0>        -0.0311
      7 C7          2.4782    1.0735   -0.0164 C.2       1 <0>         0.1590
      8 N1          3.7111    1.5606   -0.0256 N.2       1 <0>        -0.4857
      9 C8          4.7569    0.7676   -0.0400 C.2       1 <0>         0.0405
     10 C9          4.5846   -0.5807   -0.0456 C.2       1 <0>        -0.1785
     11 S1          2.7994   -0.6854   -0.0216 S.3       1 <0>         0.0342
     12 C10         6.1464    1.3510   -0.0507 C.3       1 <0>         0.0356
     13 Cl1         6.7175    1.5743    1.6448 Cl        1 <0>        -0.1653
     14 F1         -2.4166    3.7919    0.0456 F         1 <0>        -0.1317
     15 H1          0.0021   -0.0041    0.0020 H         1 <0>         0.1382
     16 H2         -2.1434    1.1977    0.0183 H         1 <0>         0.1465
     17 H3         -0.0699    4.9310    0.0290 H         1 <0>         0.1463
     18 H4          2.0842    3.7450    0.0020 H         1 <0>         0.1474
     19 H5          5.3216   -1.3701   -0.0569 H         1 <0>         0.2046
     20 H6          6.8207    0.6738   -0.5750 H         1 <0>         0.1119
     21 H7          6.1317    2.3150   -0.5591 H         1 <0>         0.1106
@<TRIPOS>BOND
     1    1    6 ar
     2    1    2 ar
     3    1   15 1
     4    2    3 ar
     5    2   16 1
     6    3    4 ar
     7    3   14 1
     8    4    5 ar
     9    4   17 1
    10    5    6 ar
    11    5   18 1
    12    6    7 1
    13    7   11 1
    14    7    8 2
    15    8    9 1
    16    9   10 2
    17    9   12 1
    18   10   11 1
    19   10   19 1
    20   12   13 1
    21   12   20 1
    22   12   21 1
@<TRIPOS>MOLECULE
ZINC11756031
   30    31     0     0     0
SMALL
USER_CHARGES
2-[2-(m-tolyl)thiazol-4-yl]ethanamine
@<TRIPOS>ATOM
      1 C1          2.4904    1.0404   -0.0151 C.3       1 <0>        -0.1218
      2 C2          1.1780    1.7809    0.0004 C.ar      1 <0>        -0.0781
      3 C3         -0.0126    1.0758    0.0080 C.ar      1 <0>        -0.0901
      4 C4         -1.2215    1.7481    0.0173 C.ar      1 <0>        -0.1161
      5 C5         -1.2470    3.1277    0.0298 C.ar      1 <0>        -0.0737
      6 C6         -0.0501    3.8446    0.0223 C.ar      1 <0>        -0.0311
      7 C7          1.1662    3.1603    0.0074 C.ar      1 <0>        -0.0889
      8 C8         -0.0702    5.3232    0.0294 C.2       1 <0>         0.1783
      9 N1         -1.1058    6.1505    0.0432 N.2       1 <0>        -0.5136
     10 C9         -0.9383    7.4520    0.0481 C.2       1 <0>         0.0413
     11 C10         0.3173    7.9735    0.0391 C.2       1 <0>        -0.1981
     12 S1          1.2961    6.4766    0.0298 S.3       1 <0>         0.0576
     13 C11        -2.1356    8.3670    0.0634 C.3       1 <0>        -0.0698
     14 C12        -3.0540    8.0248   -1.1115 C.3       1 <0>         0.0016
     15 H1          2.7974    0.8666   -1.0465 H         1 <0>         0.0778
     16 H2          3.2489    1.6345    0.4946 H         1 <0>         0.0711
     17 H3          2.3741    0.0843    0.4953 H         1 <0>         0.0744
     18 H4          0.0021   -0.0041    0.0020 H         1 <0>         0.1336
     19 H5         -2.1473    1.1919    0.0187 H         1 <0>         0.1347
     20 H6         -2.1915    3.6514    0.0417 H         1 <0>         0.1319
     21 H7          2.0961    3.7095    0.0012 H         1 <0>         0.1280
     22 H8          0.6354    9.0055    0.0415 H         1 <0>         0.2028
     23 H9         -2.6794    8.2383    0.9992 H         1 <0>         0.1016
     24 H10        -1.8034    9.4015   -0.0245 H         1 <0>         0.1016
     25 H11        -2.5102    8.1535   -2.0473 H         1 <0>         0.1308
     26 H12        -3.3862    6.9904   -1.0236 H         1 <0>         0.1427
     27 H13        -4.8436    8.7106   -1.8635 H         1 <0>         0.4416
     28 H14        -4.7057    8.8635   -0.2132 H         1 <0>         0.4378
     29 N2         -4.2096    8.9391   -1.0996 N.4       1 <0>        -0.6464
     30 H15        -3.8779    9.9038   -1.2167 H         1 <0>         0.4386
@<TRIPOS>BOND
     1    1    2 1
     2    1   15 1
     3    1   16 1
     4    1   17 1
     5    2    7 ar
     6    2    3 ar
     7    3    4 ar
     8    3   18 1
     9    4    5 ar
    10    4   19 1
    11    5    6 ar
    12    5   20 1
    13    6    7 ar
    14    6    8 1
    15    7   21 1
    16    8   12 1
    17    8    9 2
    18    9   10 1
    19   10   11 2
    20   10   13 1
    21   11   12 1
    22   11   22 1
    23   13   14 1
    24   13   23 1
    25   13   24 1
    26   14   25 1
    27   14   26 1
    28   14   29 1
    29   27   29 1
    30   28   29 1
    31   29   30 1
@<TRIPOS>MOLECULE
ZINC11886273
   27    28     0     0     0
SMALL
USER_CHARGES
[2-(4-methylthiazol-2-yl)phenyl]methanamine
@<TRIPOS>ATOM
      1 C1          1.1302    3.1401   -1.8337 C.3       1 <0>        -0.0909
      2 C2          1.1003    1.8750   -1.0154 C.2       1 <0>         0.0478
      3 C3          2.1934    1.5021   -0.2980 C.2       1 <0>        -0.1791
      4 S1          1.6004   -0.0139    0.4427 S.3       1 <0>         0.1003
      5 C4         -0.0340    0.0146   -0.2820 C.2       1 <0>         0.1072
      6 N1          0.0191    1.1317   -0.9936 N.2       1 <0>        -0.5317
      7 C5         -1.1452   -0.9490   -0.1293 C.ar      1 <0>         0.0068
      8 C6         -0.9053   -2.3192   -0.2429 C.ar      1 <0>        -0.0834
      9 C7         -1.9463   -3.2128   -0.0994 C.ar      1 <0>        -0.0810
     10 C8         -3.2262   -2.7533    0.1565 C.ar      1 <0>        -0.0933
     11 C9         -3.4707   -1.3966    0.2702 C.ar      1 <0>        -0.0858
     12 C10        -2.4370   -0.4925    0.1346 C.ar      1 <0>        -0.1274
     13 C11        -2.7039    0.9849    0.2654 C.3       1 <0>         0.0559
     14 H1          0.7883    3.9759   -1.2232 H         1 <0>         0.0799
     15 H2          2.1488    3.3301   -2.1720 H         1 <0>         0.0856
     16 H3          0.4751    3.0294   -2.6978 H         1 <0>         0.0750
     17 H4          3.1536    1.9871   -0.2018 H         1 <0>         0.2093
     18 H5          0.0931   -2.6790   -0.4429 H         1 <0>         0.1409
     19 H6         -1.7619   -4.2734   -0.1867 H         1 <0>         0.1463
     20 H7         -4.0379   -3.4570    0.2677 H         1 <0>         0.1445
     21 H8         -4.4719   -1.0443    0.4697 H         1 <0>         0.1435
     22 H9         -3.6527    1.1386    0.7795 H         1 <0>         0.1431
     23 H10        -1.9011    1.4499    0.8376 H         1 <0>         0.1288
     24 H11        -3.4610    1.1336   -1.6433 H         1 <0>         0.4307
     25 H12        -2.9454    2.5826   -1.0103 H         1 <0>         0.4338
     26 N2         -2.7438    1.5865   -1.0792 N.4       1 <0>        -0.6478
     27 H13        -1.8313    1.4599   -1.5327 H         1 <0>         0.4411
@<TRIPOS>BOND
     1    1    2 1
     2    1   14 1
     3    1   15 1
     4    1   16 1
     5    2    6 1
     6    2    3 2
     7    3    4 1
     8    3   17 1
     9    4    5 1
    10    5    6 2
    11    5    7 1
    12    7   12 ar
    13    7    8 ar
    14    8    9 ar
    15    8   18 1
    16    9   10 ar
    17    9   19 1
    18   10   11 ar
    19   10   20 1
    20   11   12 ar
    21   11   21 1
    22   12   13 1
    23   13   22 1
    24   13   23 1
    25   13   26 1
    26   24   26 1
    27   25   26 1
    28   26   27 1
@<TRIPOS>MOLECULE
ZINC51596253
   36    37     0     0     0
SMALL
USER_CHARGES

@<TRIPOS>ATOM
      1 C1         -0.0184    1.5028    0.0103 C.3       1 <0>        -0.1287
      2 C2          0.0021   -0.0041    0.0020 C.ar      1 <0>        -0.0163
      3 C3          0.0057   -0.6861   -1.2022 C.ar      1 <0>        -0.1277
      4 C4          0.0248   -2.0653   -1.2183 C.ar      1 <0>        -0.0521
      5 C5          0.0406   -2.7745   -0.0165 C.ar      1 <0>        -0.0846
      6 C6          0.0368   -2.0809    1.1966 C.ar      1 <0>         0.1593
      7 C7          0.0229   -0.6985    1.1976 C.ar      1 <0>        -0.1599
      8 F1          0.0515   -2.7591    2.3649 F         1 <0>        -0.1186
      9 C8          0.0606   -4.2526   -0.0268 C.2       1 <0>         0.1802
     10 N1          0.0718   -5.1010    0.9919 N.2       1 <0>        -0.4994
     11 C9          0.0895   -6.3990    0.7973 C.2       1 <0>        -0.0065
     12 C10         0.0965   -6.8942   -0.4685 C.2       1 <0>        -0.1833
     13 S1          0.0683   -5.3778   -1.4163 S.3       1 <0>         0.0978
     14 C11         0.1025   -7.3386    1.9755 C.3       1 <0>         0.0747
     15 N2          1.4849   -7.5303    2.4337 N.4       1 <0>        -0.5063
     16 C12         1.4975   -8.4463    3.5821 C.3       1 <0>         0.0238
     17 C13         1.0235   -9.8307    3.1355 C.3       1 <0>        -0.1853
     18 C14         2.9196   -8.5486    4.1372 C.3       1 <0>        -0.1841
     19 H1          1.0042    1.8801    0.0026 H         1 <0>         0.0862
     20 H2         -0.5455    1.8639   -0.8728 H         1 <0>         0.0802
     21 H3         -0.5286    1.8543    0.9071 H         1 <0>         0.0779
     22 H4         -0.0068   -0.1369   -2.1320 H         1 <0>         0.1456
     23 H5          0.0273   -2.5953   -2.1593 H         1 <0>         0.1390
     24 H6          0.0244   -0.1600    2.1338 H         1 <0>         0.1488
     25 H7          0.1105   -7.9194   -0.8078 H         1 <0>         0.2107
     26 H8         -0.4931   -6.9153    2.7844 H         1 <0>         0.1451
     27 H9         -0.3184   -8.2993    1.6787 H         1 <0>         0.1463
     28 H10         2.0362   -7.9221    1.6849 H         1 <0>         0.4235
     29 H11         0.8315   -8.0666    4.3570 H         1 <0>         0.1406
     30 H12         1.6896  -10.2103    2.3607 H         1 <0>         0.0821
     31 H13         1.0329  -10.5103    3.9877 H         1 <0>         0.1072
     32 H14         0.0104   -9.7578    2.7401 H         1 <0>         0.0814
     33 H15         3.2573   -7.5623    4.4554 H         1 <0>         0.0818
     34 H16         2.9290   -9.2282    4.9894 H         1 <0>         0.1078
     35 H17         3.5857   -8.9282    3.3624 H         1 <0>         0.0811
     36 H18         1.8745   -6.6411    2.7085 H         1 <0>         0.4316
@<TRIPOS>BOND
     1    1    2 1
     2    1   19 1
     3    1   20 1
     4    1   21 1
     5    2    7 ar
     6    2    3 ar
     7    3    4 ar
     8    3   22 1
     9    4    5 ar
    10    4   23 1
    11    5    6 ar
    12    5    9 1
    13    6    7 ar
    14    6    8 1
    15    7   24 1
    16    9   13 1
    17    9   10 2
    18   10   11 1
    19   11   12 2
    20   11   14 1
    21   12   13 1
    22   12   25 1
    23   14   15 1
    24   14   26 1
    25   14   27 1
    26   15   16 1
    27   15   28 1
    28   15   36 1
    29   16   17 1
    30   16   18 1
    31   16   29 1
    32   17   30 1
    33   17   31 1
    34   17   32 1
    35   18   33 1
    36   18   34 1
    37   18   35 1
@<TRIPOS>MOLECULE
ZINC40999740
   31    33     0     0     0
SMALL
USER_CHARGES

@<TRIPOS>ATOM
      1 C1         -0.0168    1.3911    0.0097 C.ar      1 <0>        -0.0650
      2 C2          1.1694    2.0956    0.0021 C.ar      1 <0>        -0.1192
      3 C3          2.3789    1.4210   -0.0135 C.ar      1 <0>         0.1049
      4 C4          2.4046    0.0332   -0.0216 C.ar      1 <0>         0.0718
      5 C5          1.2227   -0.6809   -0.0137 C.ar      1 <0>        -0.0744
      6 C6          0.0021   -0.0041    0.0020 C.ar      1 <0>        -0.0208
      7 C7         -1.2667   -0.7630    0.0101 C.2       1 <0>         0.1730
      8 N1         -1.4629   -2.0741    0.0103 N.2       1 <0>        -0.5015
      9 C8         -2.6732   -2.5819    0.0186 C.2       1 <0>        -0.0108
     10 C9         -3.7538   -1.7573    0.0271 C.2       1 <0>        -0.1761
     11 S1         -2.9498   -0.1598    0.0300 S.3       1 <0>         0.1123
     12 C10        -2.8645   -4.0767    0.0182 C.3       1 <0>         0.0827
     13 N2         -2.8165   -4.5762   -1.3625 N.4       1 <0>        -0.4785
     14 C11        -3.0030   -6.0333   -1.3629 C.3       1 <0>        -0.0843
     15 C12        -1.8426   -6.8939   -1.8666 C.3       1 <0>        -0.1534
     16 C13        -3.1020   -6.7325   -2.7202 C.3       1 <0>        -0.1537
     17 F1          3.5873   -0.6197   -0.0378 F         1 <0>        -0.1161
     18 F2          3.5374    2.1160   -0.0213 F         1 <0>        -0.1124
     19 H1         -0.9590    1.9189    0.0260 H         1 <0>         0.1474
     20 H2          1.1548    3.1755    0.0081 H         1 <0>         0.1634
     21 H3          1.2427   -1.7607   -0.0204 H         1 <0>         0.1580
     22 H4         -4.8062   -1.9998    0.0339 H         1 <0>         0.2129
     23 H5         -2.0716   -4.5447    0.6016 H         1 <0>         0.1461
     24 H6         -3.8315   -4.3194    0.4589 H         1 <0>         0.1469
     25 H7         -3.5505   -4.1430   -1.9025 H         1 <0>         0.4268
     26 H8         -3.6071   -6.4301   -0.5470 H         1 <0>         0.1796
     27 H9         -0.9408   -6.3789   -2.1977 H         1 <0>         0.1213
     28 H10        -1.6830   -7.8571   -1.3820 H         1 <0>         0.1347
     29 H11        -3.7711   -7.5895   -2.7972 H         1 <0>         0.1351
     30 H12        -3.0288   -6.1112   -3.6128 H         1 <0>         0.1205
     31 H13        -1.9214   -4.3515   -1.7704 H         1 <0>         0.4288
@<TRIPOS>BOND
     1    1    6 ar
     2    1    2 ar
     3    1   19 1
     4    2    3 ar
     5    2   20 1
     6    3    4 ar
     7    3   18 1
     8    4    5 ar
     9    4   17 1
    10    5    6 ar
    11    5   21 1
    12    6    7 1
    13    7   11 1
    14    7    8 2
    15    8    9 1
    16    9   10 2
    17    9   12 1
    18   10   11 1
    19   10   22 1
    20   12   13 1
    21   12   23 1
    22   12   24 1
    23   13   14 1
    24   13   25 1
    25   13   31 1
    26   14   16 1
    27   14   15 1
    28   14   26 1
    29   15   16 1
    30   15   27 1
    31   15   28 1
    32   16   29 1
    33   16   30 1
@<TRIPOS>MOLECULE
ZINC80803700
   37    38     0     0     0
SMALL
USER_CHARGES

@<TRIPOS>ATOM
      1 C1         -0.0187    1.5258    0.0104 C.3       1 <0>        -0.1562
      2 C2          0.0021   -0.0041    0.0020 C.3       1 <0>        -0.1498
      3 C3          0.7182   -0.4975   -1.2568 C.3       1 <0>        -0.0158
      4 N1          0.7381   -1.9663   -1.2649 N.4       1 <0>        -0.5004
      5 C4          1.4257   -2.4401   -2.4735 C.3       1 <0>         0.1170
      6 H1          0.9519   -2.0070   -3.3544 H         1 <0>         0.1509
      7 C5          2.8948   -2.0156   -2.4239 C.3       1 <0>        -0.1801
      8 C6          1.3392   -3.9429   -2.5442 C.2       1 <0>         0.0024
      9 C7          1.4315   -4.5742   -3.7441 C.2       1 <0>        -0.1747
     10 S1          1.2689   -6.2803   -3.2331 S.3       1 <0>         0.1076
     11 C8          1.0961   -5.9674   -1.4812 C.2       1 <0>         0.1804
     12 N2          1.1799   -4.6447   -1.4462 N.2       1 <0>        -0.5310
     13 C9          0.9137   -6.9256   -0.3705 C.ar      1 <0>        -0.0367
     14 C10         0.7924   -6.4621    0.9408 C.ar      1 <0>        -0.0456
     15 C11         0.6220   -7.3584    1.9741 C.ar      1 <0>        -0.1341
     16 C12         0.5712   -8.7211    1.7128 C.ar      1 <0>         0.1566
     17 C13         0.6915   -9.1870    0.4092 C.ar      1 <0>        -0.0656
     18 C14         0.8565   -8.2958   -0.6308 C.ar      1 <0>        -0.0620
     19 Cl1         0.6278  -10.8919    0.0883 Cl        1 <0>        -0.0299
     20 O1          0.4039   -9.6013    2.7343 O.3       1 <0>        -0.4815
     21 H2          1.0039    1.9031    0.0027 H         1 <0>         0.0672
     22 H3         -0.5459    1.8868   -0.8726 H         1 <0>         0.0671
     23 H4         -0.5289    1.8773    0.9072 H         1 <0>         0.0777
     24 H5          0.5293   -0.3651    0.8851 H         1 <0>         0.0866
     25 H6         -1.0205   -0.3814    0.0098 H         1 <0>         0.0860
     26 H7          0.1910   -0.1364   -2.1398 H         1 <0>         0.1319
     27 H8          1.7408   -0.1202   -1.2645 H         1 <0>         0.1336
     28 H9          1.2261   -2.3006   -0.4474 H         1 <0>         0.4325
     29 H10         3.4050   -2.3671   -3.3207 H         1 <0>         0.1069
     30 H11         2.9574   -0.9286   -2.3728 H         1 <0>         0.0895
     31 H12         3.3686   -2.4487   -1.5430 H         1 <0>         0.0844
     32 H13         1.5655   -4.1602   -4.7326 H         1 <0>         0.2111
     33 H14         0.8325   -5.4024    1.1454 H         1 <0>         0.1429
     34 H15         0.5281   -7.0001    2.9886 H         1 <0>         0.1527
     35 H16         0.9455   -8.6579   -1.6444 H         1 <0>         0.1438
     36 H17        -0.5208   -9.8044    2.9310 H         1 <0>         0.4053
     37 H18        -0.2085   -2.3156   -1.2577 H         1 <0>         0.4293
@<TRIPOS>BOND
     1    1    2 1
     2    1   21 1
     3    1   22 1
     4    1   23 1
     5    2    3 1
     6    2   24 1
     7    2   25 1
     8    3    4 1
     9    3   26 1
    10    3   27 1
    11    4    5 1
    12    4   28 1
    13    4   37 1
    14    5    6 1
    15    5    7 1
    16    5    8 1
    17    7   29 1
    18    7   30 1
    19    7   31 1
    20    8   12 1
    21    8    9 2
    22    9   10 1
    23    9   32 1
    24   10   11 1
    25   11   12 2
    26   11   13 1
    27   13   18 ar
    28   13   14 ar
    29   14   15 ar
    30   14   33 1
    31   15   16 ar
    32   15   34 1
    33   16   17 ar
    34   16   20 1
    35   17   18 ar
    36   17   19 1
    37   18   35 1
    38   20   36 1
@<TRIPOS>MOLECULE
ZINC61056982
   41    42     0     0     0
SMALL
USER_CHARGES

@<TRIPOS>ATOM
      1 C1         -0.0187    1.5258    0.0104 C.3       1 <0>        -0.1460
      2 C2          0.0021   -0.0041    0.0020 C.3       1 <0>        -0.1143
      3 C3         -1.4333   -0.5336    0.0129 C.3       1 <0>        -0.1347
      4 C4          0.7074   -0.4901   -1.2379 C.2       1 <0>         0.5185
      5 O1          0.1200   -1.1910   -2.0344 O.2       1 <0>        -0.5344
      6 N1          1.9912   -0.1458   -1.4616 N.am      1 <0>        -0.7299
      7 C5          2.6769   -0.6183   -2.6669 C.3       1 <0>         0.1081
      8 C6          4.1123   -0.0887   -2.6777 C.3       1 <0>         0.1085
      9 N2          4.7980   -0.5611   -3.8831 N.am      1 <0>        -0.7113
     10 C7          6.0817   -0.2169   -4.1068 C.2       1 <0>         0.5953
     11 O2          6.6709    0.4861   -3.3080 O.2       1 <0>        -0.5319
     12 C8          6.7712   -0.6919   -5.3188 C.2       1 <0>        -0.0143
     13 C9          8.0773   -0.3520   -5.5529 C.2       1 <0>        -0.1941
     14 S1          8.3951   -1.1170   -7.0181 S.3       1 <0>         0.1875
     15 C10         6.7923   -1.8589   -7.2703 C.2       1 <0>         0.1059
     16 N3          6.1378   -1.4589   -6.1953 N.2       1 <0>        -0.4548
     17 C11         6.3212   -2.7049   -8.3886 C.ar      1 <0>        -0.0012
     18 C12         5.0114   -3.1860   -8.3994 C.ar      1 <0>        -0.0681
     19 C13         4.5775   -3.9747   -9.4449 C.ar      1 <0>        -0.1034
     20 C14         5.4377   -4.2893  -10.4817 C.ar      1 <0>        -0.0907
     21 C15         6.7385   -3.8154  -10.4774 C.ar      1 <0>        -0.0328
     22 C16         7.1828   -3.0202   -9.4392 C.ar      1 <0>        -0.0880
     23 Cl1         7.8108   -4.2153  -11.7827 Cl        1 <0>        -0.0564
     24 H1          1.0039    1.9031    0.0027 H         1 <0>         0.0596
     25 H2         -0.5459    1.8868   -0.8726 H         1 <0>         0.0618
     26 H3         -0.5289    1.8773    0.9072 H         1 <0>         0.0707
     27 H4          0.5293   -0.3651    0.8851 H         1 <0>         0.0991
     28 H5         -1.9605   -0.1726   -0.8702 H         1 <0>         0.0627
     29 H6         -1.4185   -1.6235    0.0069 H         1 <0>         0.0623
     30 H7         -1.9435   -0.1821    0.9097 H         1 <0>         0.0636
     31 H8          2.4610    0.4148   -0.8245 H         1 <0>         0.4038
     32 H9          2.6916   -1.7081   -2.6729 H         1 <0>         0.0761
     33 H10         2.1497   -0.2572   -3.5499 H         1 <0>         0.0761
     34 H11         4.0975    1.0012   -2.6718 H         1 <0>         0.0778
     35 H12         4.6394   -0.4498   -1.7947 H         1 <0>         0.0778
     36 H13         4.3281   -1.1217   -4.5201 H         1 <0>         0.4129
     37 H14         8.7369    0.2540   -4.9495 H         1 <0>         0.2124
     38 H15         4.3386   -2.9417   -7.5907 H         1 <0>         0.1426
     39 H16         3.5640   -4.3477   -9.4537 H         1 <0>         0.1433
     40 H17         5.0932   -4.9074  -11.2976 H         1 <0>         0.1412
     41 H18         8.1962   -2.6468   -9.4388 H         1 <0>         0.1385
@<TRIPOS>BOND
     1    1    2 1
     2    1   24 1
     3    1   25 1
     4    1   26 1
     5    2    3 1
     6    2    4 1
     7    2   27 1
     8    3   28 1
     9    3   29 1
    10    3   30 1
    11    4    5 2
    12    4    6 am
    13    6    7 1
    14    6   31 1
    15    7    8 1
    16    7   32 1
    17    7   33 1
    18    8    9 1
    19    8   34 1
    20    8   35 1
    21    9   10 am
    22    9   36 1
    23   10   11 2
    24   10   12 1
    25   12   16 1
    26   12   13 2
    27   13   14 1
    28   13   37 1
    29   14   15 1
    30   15   16 2
    31   15   17 1
    32   17   22 ar
    33   17   18 ar
    34   18   19 ar
    35   18   38 1
    36   19   20 ar
    37   19   39 1
    38   20   21 ar
    39   20   40 1
    40   21   22 ar
    41   21   23 1
    42   22   41 1
@<TRIPOS>MOLECULE
ZINC80803702
   37    38     0     0     0
SMALL
USER_CHARGES

@<TRIPOS>ATOM
      1 C1         -0.0187    1.5258    0.0104 C.3       1 <0>        -0.1561
      2 C2          0.0021   -0.0041    0.0020 C.3       1 <0>        -0.1499
      3 C3          0.7182   -0.4975   -1.2568 C.3       1 <0>        -0.0157
      4 N1          0.7381   -1.9663   -1.2649 N.4       1 <0>        -0.5004
      5 C4          1.4257   -2.4401   -2.4735 C.3       1 <0>         0.1168
      6 H1          2.4178   -1.9917   -2.5265 H         1 <0>         0.1509
      7 C5          0.6183   -2.0394   -3.7098 C.3       1 <0>        -0.1798
      8 C6          1.5548   -3.9407   -2.4224 C.2       1 <0>         0.0025
      9 C7          2.5509   -4.5617   -3.1072 C.2       1 <0>        -0.1747
     10 S1          2.2219   -6.2699   -2.6918 S.3       1 <0>         0.1075
     11 C8          0.7970   -5.9711   -1.6539 C.2       1 <0>         0.1806
     12 N2          0.7084   -4.6495   -1.7120 N.2       1 <0>        -0.5311
     13 C9         -0.0511   -6.9371   -0.9240 C.ar      1 <0>        -0.0367
     14 C10        -1.1330   -6.4853   -0.1661 C.ar      1 <0>        -0.0455
     15 C11        -1.9221   -7.3888    0.5130 C.ar      1 <0>        -0.1341
     16 C12        -1.6422   -8.7471    0.4447 C.ar      1 <0>         0.1567
     17 C13        -0.5664   -9.2013   -0.3085 C.ar      1 <0>        -0.0657
     18 C14         0.2244   -8.3036   -0.9955 C.ar      1 <0>        -0.0619
     19 Cl1        -0.2208  -10.9006   -0.3899 Cl        1 <0>        -0.0299
     20 O1         -2.4219   -9.6343    1.1163 O.3       1 <0>        -0.4817
     21 H2          1.0039    1.9031    0.0027 H         1 <0>         0.0671
     22 H3         -0.5459    1.8868   -0.8726 H         1 <0>         0.0671
     23 H4         -0.5289    1.8773    0.9072 H         1 <0>         0.0777
     24 H5          0.5293   -0.3651    0.8851 H         1 <0>         0.0861
     25 H6         -1.0205   -0.3814    0.0098 H         1 <0>         0.0865
     26 H7          0.1910   -0.1364   -2.1398 H         1 <0>         0.1335
     27 H8          1.7408   -0.1202   -1.2645 H         1 <0>         0.1319
     28 H9          1.2261   -2.3006   -0.4474 H         1 <0>         0.4295
     29 H10         0.5249   -0.9541   -3.7467 H         1 <0>         0.0894
     30 H11         1.1285   -2.3909   -4.6066 H         1 <0>         0.1069
     31 H12        -0.3738   -2.4878   -3.6568 H         1 <0>         0.0843
     32 H13         3.3262   -4.1405   -3.7299 H         1 <0>         0.2111
     33 H14        -1.3512   -5.4290   -0.1116 H         1 <0>         0.1429
     34 H15        -2.7591   -7.0396    1.0994 H         1 <0>         0.1527
     35 H16         1.0578   -8.6572   -1.5844 H         1 <0>         0.1438
     36 H17        -3.1732   -9.9639    0.6044 H         1 <0>         0.4056
     37 H18        -0.2085   -2.3156   -1.2577 H         1 <0>         0.4324
@<TRIPOS>BOND
     1    1    2 1
     2    1   21 1
     3    1   22 1
     4    1   23 1
     5    2    3 1
     6    2   24 1
     7    2   25 1
     8    3    4 1
     9    3   26 1
    10    3   27 1
    11    4    5 1
    12    4   28 1
    13    4   37 1
    14    5    6 1
    15    5    7 1
    16    5    8 1
    17    7   29 1
    18    7   30 1
    19    7   31 1
    20    8   12 1
    21    8    9 2
    22    9   10 1
    23    9   32 1
    24   10   11 1
    25   11   12 2
    26   11   13 1
    27   13   18 ar
    28   13   14 ar
    29   14   15 ar
    30   14   33 1
    31   15   16 ar
    32   15   34 1
    33   16   17 ar
    34   16   20 1
    35   17   18 ar
    36   17   19 1
    37   18   35 1
    38   20   36 1
@<TRIPOS>MOLECULE
ZINC90249889
   30    31     0     0     0
SMALL
USER_CHARGES

@<TRIPOS>ATOM
      1 C1         -0.0187    1.5258    0.0104 C.3       1 <0>        -0.1798
      2 C2          0.0021   -0.0041    0.0020 C.3       1 <0>         0.1148
      3 H1         -1.0205   -0.3814    0.0098 H         1 <0>         0.1498
      4 C3          0.7074   -0.4901   -1.2379 C.2       1 <0>        -0.0072
      5 C4          0.0222   -0.6184   -2.4050 C.2       1 <0>        -0.2001
      6 S1          1.3193   -1.2078   -3.4861 S.3       1 <0>         0.1617
      7 C5          2.6289   -1.2189   -2.2688 C.2       1 <0>         0.1430
      8 N1          1.9855   -0.7850   -1.1941 N.2       1 <0>        -0.5173
      9 C6          4.0483   -1.6039   -2.4211 C.ar      1 <0>         0.0141
     10 C7          4.9119   -1.5440   -1.3266 C.ar      1 <0>        -0.0593
     11 C8          6.2360   -1.9053   -1.4754 C.ar      1 <0>        -0.0216
     12 C9          6.7077   -2.3260   -2.7077 C.ar      1 <0>        -0.0764
     13 C10         5.8570   -2.3875   -3.7961 C.ar      1 <0>        -0.0656
     14 C11         4.5290   -2.0344   -3.6592 C.ar      1 <0>        -0.0775
     15 Br1         3.3658   -2.1263   -5.1473 Br        1 <0>         0.0154
     16 Cl1         7.3121   -1.8316   -0.1151 Cl        1 <0>        -0.0354
     17 N2          0.7126   -0.4907    1.1921 N.4       1 <0>        -0.5011
     18 C12        -0.0398   -0.1189    2.3978 C.3       1 <0>        -0.0522
     19 H2          1.0039    1.9031    0.0027 H         1 <0>         0.0835
     20 H3         -0.5459    1.8868   -0.8726 H         1 <0>         0.1060
     21 H4         -0.5289    1.8773    0.9072 H         1 <0>         0.0890
     22 H5         -1.0174   -0.4197   -2.6197 H         1 <0>         0.2046
     23 H6          4.5453   -1.2154   -0.3653 H         1 <0>         0.1521
     24 H7          7.7446   -2.6069   -2.8191 H         1 <0>         0.1575
     25 H8          6.2311   -2.7161   -4.7545 H         1 <0>         0.1589
     26 H9          0.7982   -1.4950    1.1455 H         1 <0>         0.4313
     27 H10        -0.1324    0.9660    2.4481 H         1 <0>         0.1254
     28 H11        -1.0328   -0.5668    2.3589 H         1 <0>         0.1242
     29 H12         0.4873   -0.4799    3.2808 H         1 <0>         0.1282
     30 H13         1.6317   -0.0761    1.2281 H         1 <0>         0.4340
@<TRIPOS>BOND
     1    1    2 1
     2    1   19 1
     3    1   20 1
     4    1   21 1
     5    2    3 1
     6    2    4 1
     7    2   17 1
     8    4    8 1
     9    4    5 2
    10    5    6 1
    11    5   22 1
    12    6    7 1
    13    7    8 2
    14    7    9 1
    15    9   14 ar
    16    9   10 ar
    17   10   11 ar
    18   10   23 1
    19   11   12 ar
    20   11   16 1
    21   12   13 ar
    22   12   24 1
    23   13   14 ar
    24   13   25 1
    25   14   15 1
    26   17   18 1
    27   17   26 1
    28   17   30 1
    29   18   27 1
    30   18   28 1
    31   18   29 1
@<TRIPOS>MOLECULE
ZINC90249890
   30    31     0     0     0
SMALL
USER_CHARGES

@<TRIPOS>ATOM
      1 C1         -0.0187    1.5258    0.0104 C.3       1 <0>        -0.1797
      2 C2          0.0021   -0.0041    0.0020 C.3       1 <0>         0.1147
      3 H1         -1.0205   -0.3814    0.0098 H         1 <0>         0.1497
      4 C3          0.7309   -0.5033    1.2229 C.2       1 <0>        -0.0071
      5 C4          0.0657   -0.6539    2.3989 C.2       1 <0>        -0.2002
      6 S1          1.3840   -1.2512    3.4496 S.3       1 <0>         0.1617
      7 C5          2.6736   -1.2350    2.2112 C.2       1 <0>         0.1431
      8 N1          2.0077   -0.7985    1.1513 N.2       1 <0>        -0.5174
      9 C6          4.0980   -1.6117    2.3348 C.ar      1 <0>         0.0141
     10 C7          4.9460   -1.5176    1.2305 C.ar      1 <0>        -0.0593
     11 C8          6.2752   -1.8704    1.3527 C.ar      1 <0>        -0.0217
     12 C9          6.7671   -2.3172    2.5678 C.ar      1 <0>        -0.0764
     13 C10         5.9319   -2.4126    3.6658 C.ar      1 <0>        -0.0656
     14 C11         4.6017   -2.0574    3.5582 C.ar      1 <0>        -0.0775
     15 Br1         3.4631   -2.1818    5.0629 Br        1 <0>         0.0154
     16 Cl1         7.3319   -1.7542   -0.0197 Cl        1 <0>        -0.0353
     17 N2          0.6897   -0.4778   -1.2066 N.4       1 <0>        -0.5011
     18 C12        -0.0856   -0.0931   -2.3936 C.3       1 <0>        -0.0522
     19 H2          1.0039    1.9031    0.0027 H         1 <0>         0.0835
     20 H3         -0.5459    1.8868   -0.8726 H         1 <0>         0.0889
     21 H4         -0.5289    1.8773    0.9072 H         1 <0>         0.1060
     22 H5         -0.9714   -0.4649    2.6337 H         1 <0>         0.2046
     23 H6          4.5633   -1.1700    0.2823 H         1 <0>         0.1521
     24 H7          7.8075   -2.5927    2.6581 H         1 <0>         0.1575
     25 H8          6.3215   -2.7621    4.6105 H         1 <0>         0.1589
     26 H9          1.6080   -0.0627   -1.2556 H         1 <0>         0.4340
     27 H10        -1.0777   -0.5415   -2.3406 H         1 <0>         0.1242
     28 H11        -0.1790    0.9922   -2.4305 H         1 <0>         0.1254
     29 H12         0.4246   -0.4447   -3.2904 H         1 <0>         0.1282
     30 H13         0.7761   -1.4825   -1.1724 H         1 <0>         0.4313
@<TRIPOS>BOND
     1    1    2 1
     2    1   19 1
     3    1   20 1
     4    1   21 1
     5    2    3 1
     6    2    4 1
     7    2   17 1
     8    4    8 1
     9    4    5 2
    10    5    6 1
    11    5   22 1
    12    6    7 1
    13    7    8 2
    14    7    9 1
    15    9   14 ar
    16    9   10 ar
    17   10   11 ar
    18   10   23 1
    19   11   12 ar
    20   11   16 1
    21   12   13 ar
    22   12   24 1
    23   13   14 ar
    24   13   25 1
    25   14   15 1
    26   17   18 1
    27   17   26 1
    28   17   30 1
    29   18   27 1
    30   18   28 1
    31   18   29 1
@<TRIPOS>MOLECULE
ZINC36893366
   21    22     0     0     0
SMALL
USER_CHARGES

@<TRIPOS>ATOM
      1 C1         -0.0167    1.3791    0.0096 C.ar      1 <0>        -0.0766
      2 C2          1.1678    2.0936    0.0022 C.ar      1 <0>        -0.1023
      3 C3          2.3785    1.4294   -0.0134 C.ar      1 <0>        -0.0153
      4 C4          2.4051    0.0332   -0.0211 C.ar      1 <0>         0.0029
      5 C5          1.2054   -0.6815   -0.0130 C.ar      1 <0>         0.0086
      6 C6          0.0021   -0.0041    0.0020 C.ar      1 <0>        -0.1057
      7 Cl1         1.2266   -2.4173   -0.0230 Cl        1 <0>        -0.0149
      8 C7          3.6972   -0.6848   -0.0382 C.2       1 <0>         0.1251
      9 N1          3.9348   -1.9890   -0.0531 N.2       1 <0>        -0.4561
     10 C8          5.1607   -2.4580   -0.0676 C.2       1 <0>         0.0328
     11 C9          6.2145   -1.5994   -0.0676 C.2       1 <0>        -0.1952
     12 S1          5.3602   -0.0283   -0.0524 S.3       1 <0>         0.0820
     13 C10         5.3994   -3.9459   -0.0838 C.3       1 <0>         0.0374
     14 Cl2         5.4814   -4.5229   -1.7900 Cl        1 <0>        -0.1677
     15 Cl3         3.8638    2.3281   -0.0239 Cl        1 <0>        -0.0238
     16 H1         -0.9606    1.9037    0.0260 H         1 <0>         0.1505
     17 H2          1.1457    3.1733    0.0081 H         1 <0>         0.1500
     18 H3         -0.9265   -0.5555    0.0082 H         1 <0>         0.1498
     19 H4          7.2741   -1.8082   -0.0779 H         1 <0>         0.2004
     20 H5          6.3397   -4.1685    0.4206 H         1 <0>         0.1101
     21 H6          4.5823   -4.4506    0.4316 H         1 <0>         0.1081
@<TRIPOS>BOND
     1    1    6 ar
     2    1    2 ar
     3    1   16 1
     4    2    3 ar
     5    2   17 1
     6    3    4 ar
     7    3   15 1
     8    4    5 ar
     9    4    8 1
    10    5    6 ar
    11    5    7 1
    12    6   18 1
    13    8   12 1
    14    8    9 2
    15    9   10 1
    16   10   11 2
    17   10   13 1
    18   11   12 1
    19   11   19 1
    20   13   14 1
    21   13   20 1
    22   13   21 1
@<TRIPOS>MOLECULE
ZINC22167620
   21    22     0     0     0
SMALL
USER_CHARGES
4-(chloromethyl)-2-(3-fluorophenyl)thiazole
@<TRIPOS>ATOM
      1 C1         -3.4923   -1.3821    0.0266 C.ar      1 <0>        -0.0884
      2 C2         -2.4413   -0.4878    0.0276 C.ar      1 <0>        -0.0795
      3 C3         -1.1278   -0.9580    0.0073 C.ar      1 <0>         0.0113
      4 C4         -0.8845   -2.3320   -0.0023 C.ar      1 <0>        -0.1297
      5 C5         -1.9449   -3.2178    0.0026 C.ar      1 <0>         0.1044
      6 C6         -3.2469   -2.7430    0.0171 C.ar      1 <0>        -0.1327
      7 F1         -1.7122   -4.5486   -0.0063 F         1 <0>        -0.1323
      8 C7          0.0021   -0.0041    0.0020 C.2       1 <0>         0.1527
      9 N1         -0.0159    1.3214    0.0093 N.2       1 <0>        -0.4804
     10 C8          1.0962    2.0180    0.0024 C.2       1 <0>         0.0394
     11 C9          2.2960    1.3786   -0.0125 C.2       1 <0>        -0.1760
     12 S1          1.7604   -0.3278   -0.0165 S.3       1 <0>         0.0396
     13 C10         1.0435    3.5240    0.0105 C.3       1 <0>         0.0331
     14 Cl1         1.0058    4.1332   -1.6860 Cl        1 <0>        -0.1652
     15 H1         -4.5092   -1.0183    0.0379 H         1 <0>         0.1444
     16 H2         -2.6353    0.5746    0.0396 H         1 <0>         0.1443
     17 H3          0.1301   -2.7020   -0.0133 H         1 <0>         0.1401
     18 H4         -4.0730   -3.4386    0.0212 H         1 <0>         0.1436
     19 H5          3.2954    1.7878   -0.0195 H         1 <0>         0.2054
     20 H6          0.1382    3.8563    0.5396 H         1 <0>         0.1124
     21 H7          1.9333    3.9193    0.5224 H         1 <0>         0.1137
@<TRIPOS>BOND
     1    1    6 ar
     2    1    2 ar
     3    1   15 1
     4    2    3 ar
     5    2   16 1
     6    3    4 ar
     7    3    8 1
     8    4    5 ar
     9    4   17 1
    10    5    6 ar
    11    5    7 1
    12    6   18 1
    13    8   12 1
    14    8    9 2
    15    9   10 1
    16   10   11 2
    17   10   13 1
    18   11   12 1
    19   11   19 1
    20   13   14 1
    21   13   20 1
    22   13   21 1
@<TRIPOS>MOLECULE
ZINC88870610
   27    28     0     0     0
SMALL
USER_CHARGES

@<TRIPOS>ATOM
      1 C1         -0.0167    1.3793    0.0096 C.ar      1 <0>        -0.0858
      2 C2          1.1669    2.0883    0.0021 C.ar      1 <0>        -0.0918
      3 C3          2.3847    1.4070   -0.0132 C.ar      1 <0>         0.0308
      4 C4          2.3966    0.0116   -0.0208 C.ar      1 <0>        -0.0698
      5 C5          1.2060   -0.6855   -0.0132 C.ar      1 <0>        -0.0871
      6 C6          0.0021   -0.0041    0.0020 C.ar      1 <0>        -0.1582
      7 C7         -1.2946   -0.7720    0.0108 C.3       1 <0>         0.0464
      8 N1         -1.7296   -1.0141   -1.3712 N.4       1 <0>        -0.6373
      9 C8          3.6569    2.1605   -0.0218 C.2       1 <0>         0.1220
     10 N2          4.9027    1.7079   -0.0416 N.2       1 <0>        -0.4558
     11 C9          5.9261    2.5292   -0.0472 C.2       1 <0>        -0.0330
     12 C10         5.7168    3.8725   -0.0324 C.2       1 <0>        -0.1244
     13 S1          3.9292    3.9277   -0.0161 S.3       1 <0>         0.1046
     14 C11         7.3310    1.9844   -0.0694 C.3       1 <0>         0.5389
     15 F1          7.2892    0.5918   -0.1966 F         1 <0>        -0.1611
     16 F2          8.0260    2.5310   -1.1535 F         1 <0>        -0.1667
     17 F3          7.9820    2.3246    1.1213 F         1 <0>        -0.1666
     18 H1         -0.9598    1.9053    0.0260 H         1 <0>         0.1430
     19 H2          1.1509    3.1681    0.0077 H         1 <0>         0.1410
     20 H3          3.3358   -0.5215   -0.0330 H         1 <0>         0.1505
     21 H4          1.2139   -1.7654   -0.0191 H         1 <0>         0.1428
     22 H5         -1.1486   -1.7257    0.5181 H         1 <0>         0.1431
     23 H6         -2.0555   -0.1942    0.5353 H         1 <0>         0.1430
     24 H7         -1.8648   -0.1313   -1.8408 H         1 <0>         0.4352
     25 H8         -1.0252   -1.5490   -1.8568 H         1 <0>         0.4357
     26 H9          6.4318    4.6819   -0.0336 H         1 <0>         0.2214
     27 H10        -2.5978   -1.5283   -1.3654 H         1 <0>         0.4394
@<TRIPOS>BOND
     1    1    6 ar
     2    1    2 ar
     3    1   18 1
     4    2    3 ar
     5    2   19 1
     6    3    4 ar
     7    3    9 1
     8    4    5 ar
     9    4   20 1
    10    5    6 ar
    11    5   21 1
    12    6    7 1
    13    7    8 1
    14    7   22 1
    15    7   23 1
    16    8   24 1
    17    8   25 1
    18    8   27 1
    19    9   13 1
    20    9   10 2
    21   10   11 1
    22   11   12 2
    23   11   14 1
    24   12   13 1
    25   12   26 1
    26   14   15 1
    27   14   16 1
    28   14   17 1
@<TRIPOS>MOLECULE
ZINC82880829
   21    22     0     0     0
SMALL
USER_CHARGES

@<TRIPOS>ATOM
      1 C1         -0.0166    1.3752    0.0096 C.ar      1 <0>        -0.1127
      2 C2          1.1701    2.0869    0.0021 C.ar      1 <0>        -0.0880
      3 C3          2.3826    1.4218   -0.0130 C.ar      1 <0>        -0.1061
      4 C4          2.4159    0.0410   -0.0212 C.ar      1 <0>        -0.0231
      5 C5          1.2216   -0.6825   -0.0136 C.ar      1 <0>        -0.0048
      6 C6          0.0021   -0.0041    0.0020 C.ar      1 <0>        -0.0594
      7 C7          1.2488   -2.1607   -0.0228 C.2       1 <0>         0.1388
      8 N1          0.2401   -3.0208   -0.0234 N.2       1 <0>        -0.4805
      9 C8          0.4494   -4.3164   -0.0329 C.2       1 <0>         0.0506
     10 C9          1.7209   -4.7972   -0.0424 C.2       1 <0>        -0.2068
     11 S1          2.6512   -3.2697   -0.0439 S.3       1 <0>         0.0790
     12 C10        -0.7179   -5.2696   -0.0328 C.3       1 <0>        -0.0188
     13 I1         -1.2865   -5.7128   -2.0711 I         1 <0>        -0.1268
     14 Cl1         3.9384   -0.7927   -0.0413 Cl        1 <0>        -0.0351
     15 H1         -0.9599    1.9010    0.0259 H         1 <0>         0.1399
     16 H2          1.1494    3.1667    0.0077 H         1 <0>         0.1405
     17 H3          3.3052    1.9832   -0.0188 H         1 <0>         0.1434
     18 H4         -0.9251   -0.5578    0.0082 H         1 <0>         0.1459
     19 H5          2.0720   -5.8185   -0.0509 H         1 <0>         0.1980
     20 H6         -0.4338   -6.1919    0.4739 H         1 <0>         0.1132
     21 H7         -1.5596   -4.8132    0.4881 H         1 <0>         0.1128
@<TRIPOS>BOND
     1    1    6 ar
     2    1    2 ar
     3    1   15 1
     4    2    3 ar
     5    2   16 1
     6    3    4 ar
     7    3   17 1
     8    4    5 ar
     9    4   14 1
    10    5    6 ar
    11    5    7 1
    12    6   18 1
    13    7   11 1
    14    7    8 2
    15    8    9 1
    16    9   10 2
    17    9   12 1
    18   10   11 1
    19   10   19 1
    20   12   13 1
    21   12   20 1
    22   12   21 1
@<TRIPOS>MOLECULE
ZINC78697885
   46    49     0     0     0
SMALL
USER_CHARGES

@<TRIPOS>ATOM
      1 C1         -0.0184    1.5028    0.0103 C.3       1 <0>        -0.1277
      2 C2          0.0021   -0.0041    0.0020 C.ar      1 <0>        -0.0450
      3 C3          0.0057   -0.6862   -1.2016 C.ar      1 <0>        -0.1184
      4 C4          0.0249   -2.0657   -1.2161 C.ar      1 <0>        -0.0779
      5 C5          0.0405   -2.7729   -0.0132 C.ar      1 <0>        -0.0517
      6 C6          0.0368   -2.0788    1.1974 C.ar      1 <0>        -0.0572
      7 C7          0.0229   -0.6992    1.1980 C.ar      1 <0>        -0.1239
      8 C8          0.0606   -4.2514   -0.0214 C.2       1 <0>         0.1897
      9 N1          0.0718   -5.0983    0.9984 N.2       1 <0>        -0.5109
     10 C9          0.0895   -6.3962    0.8061 C.2       1 <0>        -0.0066
     11 C10         0.0966   -6.8936   -0.4593 C.2       1 <0>        -0.1854
     12 S1          0.0683   -5.3786   -1.4093 S.3       1 <0>         0.0879
     13 C11         0.1024   -7.3339    1.9857 C.3       1 <0>         0.0771
     14 N2          1.4849   -7.5249    2.4443 N.4       1 <0>        -0.5074
     15 C12         1.4975   -8.4389    3.5942 C.3       1 <0>         0.0458
     16 C13         2.9157   -8.6348    4.0647 C.ar      1 <0>        -0.1627
     17 C14         3.6826   -9.6649    3.5230 C.ar      1 <0>        -0.1160
     18 C15         4.9663   -9.8693    3.9260 C.ar      1 <0>        -0.0856
     19 C16         5.5304   -9.0308    4.9026 C.ar      1 <0>        -0.0346
     20 C17         6.8526   -9.2105    5.3436 C.ar      1 <0>        -0.1118
     21 C18         7.3655   -8.3787    6.2908 C.ar      1 <0>        -0.0936
     22 C19         6.5987   -7.3485    6.8323 C.ar      1 <0>        -0.1037
     23 C20         5.3148   -7.1444    6.4296 C.ar      1 <0>        -0.1046
     24 C21         4.7507   -7.9832    5.4532 C.ar      1 <0>        -0.0611
     25 C22         3.4303   -7.7999    5.0082 C.ar      1 <0>        -0.0591
     26 H1          1.0042    1.8801    0.0026 H         1 <0>         0.0811
     27 H2         -0.5455    1.8639   -0.8728 H         1 <0>         0.0750
     28 H3         -0.5286    1.8543    0.9071 H         1 <0>         0.0745
     29 H4         -0.0068   -0.1377   -2.1319 H         1 <0>         0.1375
     30 H5          0.0273   -2.5970   -2.1564 H         1 <0>         0.1287
     31 H6          0.0485   -2.6203    2.1317 H         1 <0>         0.1345
     32 H7          0.0244   -0.1607    2.1343 H         1 <0>         0.1358
     33 H8          0.1111   -7.9193   -0.7971 H         1 <0>         0.2097
     34 H9         -0.4931   -6.9093    2.7939 H         1 <0>         0.1454
     35 H10        -0.3185   -8.2951    1.6905 H         1 <0>         0.1463
     36 H11         2.0362   -7.9179    1.6962 H         1 <0>         0.4259
     37 H12         0.9020   -8.0144    4.4024 H         1 <0>         0.1389
     38 H13         1.0766   -9.4001    3.2990 H         1 <0>         0.1404
     39 H14         3.2515  -10.3107    2.7723 H         1 <0>         0.1304
     40 H15         5.5484  -10.6719    3.4979 H         1 <0>         0.1382
     41 H16         7.4585  -10.0048    4.9332 H         1 <0>         0.1359
     42 H17         8.3818   -8.5192    6.6282 H         1 <0>         0.1337
     43 H18         7.0297   -6.7027    7.5830 H         1 <0>         0.1332
     44 H19         4.7325   -6.3422    6.8583 H         1 <0>         0.1336
     45 H20         2.8258   -7.0030    5.4157 H         1 <0>         0.1357
     46 H21         1.8745   -6.6352    2.7176 H         1 <0>         0.4300
@<TRIPOS>BOND
     1    1    2 1
     2    1   26 1
     3    1   27 1
     4    1   28 1
     5    2    7 ar
     6    2    3 ar
     7    3    4 ar
     8    3   29 1
     9    4    5 ar
    10    4   30 1
    11    5    6 ar
    12    5    8 1
    13    6    7 ar
    14    6   31 1
    15    7   32 1
    16    8   12 1
    17    8    9 2
    18    9   10 1
    19   10   11 2
    20   10   13 1
    21   11   12 1
    22   11   33 1
    23   13   14 1
    24   13   34 1
    25   13   35 1
    26   14   15 1
    27   14   36 1
    28   14   46 1
    29   15   16 1
    30   15   37 1
    31   15   38 1
    32   16   25 ar
    33   16   17 ar
    34   17   18 ar
    35   17   39 1
    36   18   19 ar
    37   18   40 1
    38   19   24 ar
    39   19   20 ar
    40   20   21 ar
    41   20   41 1
    42   21   22 ar
    43   21   42 1
    44   22   23 ar
    45   22   43 1
    46   23   24 ar
    47   23   44 1
    48   24   25 ar
    49   25   45 1
@<TRIPOS>MOLECULE
ZINC78697885
   45    48     0     0     0
SMALL
USER_CHARGES

@<TRIPOS>ATOM
      1 C1         -0.0184    1.5028    0.0103 C.3       1 <0>        -0.1205
      2 C2          0.0021   -0.0041    0.0020 C.ar      1 <0>        -0.0639
      3 C3          0.0057   -0.6862   -1.2016 C.ar      1 <0>        -0.1203
      4 C4          0.0249   -2.0657   -1.2161 C.ar      1 <0>        -0.0863
      5 C5          0.0405   -2.7729   -0.0132 C.ar      1 <0>        -0.0264
      6 C6          0.0368   -2.0788    1.1974 C.ar      1 <0>        -0.0625
      7 C7          0.0229   -0.6992    1.1980 C.ar      1 <0>        -0.1226
      8 C8          0.0606   -4.2514   -0.0214 C.2       1 <0>         0.1628
      9 N1          0.0718   -5.0983    0.9984 N.2       1 <0>        -0.4802
     10 C9          0.0895   -6.3962    0.8061 C.2       1 <0>         0.0674
     11 C10         0.0966   -6.8936   -0.4593 C.2       1 <0>        -0.2024
     12 S1          0.0683   -5.3786   -1.4093 S.3       1 <0>         0.0090
     13 C11         0.1024   -7.3339    1.9857 C.3       1 <0>         0.1288
     14 N2          1.4849   -7.5249    2.4443 N.3       1 <0>        -0.6760
     15 C12         1.5365   -8.4354    3.5960 C.3       1 <0>         0.0991
     16 C13         2.9672   -8.6065    4.0373 C.ar      1 <0>        -0.0844
     17 C14         3.7396   -9.6253    3.4823 C.ar      1 <0>        -0.1091
     18 C15         5.0346   -9.8073    3.8590 C.ar      1 <0>        -0.1065
     19 C16         5.6049   -8.9569    4.8217 C.ar      1 <0>        -0.0510
     20 C17         6.9388   -9.1135    5.2355 C.ar      1 <0>        -0.1083
     21 C18         7.4573   -8.2707    6.1698 C.ar      1 <0>        -0.1155
     22 C19         6.6850   -7.2518    6.7246 C.ar      1 <0>        -0.1177
     23 C20         5.3899   -7.0701    6.3481 C.ar      1 <0>        -0.1040
     24 C21         4.8196   -7.9208    5.3858 C.ar      1 <0>        -0.0527
     25 C22         3.4873   -7.7606    4.9679 C.ar      1 <0>        -0.0785
     26 H1          1.0042    1.8801    0.0026 H         1 <0>         0.0755
     27 H2         -0.5455    1.8639   -0.8728 H         1 <0>         0.0699
     28 H3         -0.5286    1.8543    0.9071 H         1 <0>         0.0702
     29 H4         -0.0068   -0.1377   -2.1319 H         1 <0>         0.1313
     30 H5          0.0273   -2.5970   -2.1564 H         1 <0>         0.1267
     31 H6          0.0485   -2.6203    2.1317 H         1 <0>         0.1367
     32 H7          0.0244   -0.1607    2.1343 H         1 <0>         0.1313
     33 H8          0.1111   -7.9193   -0.7971 H         1 <0>         0.1973
     34 H9         -0.4931   -6.9093    2.7939 H         1 <0>         0.0907
     35 H10        -0.3185   -8.2951    1.6905 H         1 <0>         0.0489
     36 H11         0.9509   -8.0185    4.4153 H         1 <0>         0.0839
     37 H12         1.1255   -9.4042    3.3119 H         1 <0>         0.0417
     38 H13         3.3039  -10.2802    2.7423 H         1 <0>         0.1197
     39 H14         5.6209  -10.6015    3.4208 H         1 <0>         0.1268
     40 H15         7.5491   -9.8989    4.8145 H         1 <0>         0.1264
     41 H16         8.4826   -8.3935    6.4863 H         1 <0>         0.1231
     42 H17         7.1207   -6.5969    7.4646 H         1 <0>         0.1234
     43 H18         4.8033   -6.2765    6.7869 H         1 <0>         0.1272
     44 H19         2.8783   -6.9727    5.3859 H         1 <0>         0.1284
     45 H20         2.0721   -7.8571    1.6941 H         1 <0>         0.3426
@<TRIPOS>BOND
     1    1    2 1
     2    1   26 1
     3    1   27 1
     4    1   28 1
     5    2    7 ar
     6    2    3 ar
     7    3    4 ar
     8    3   29 1
     9    4    5 ar
    10    4   30 1
    11    5    6 ar
    12    5    8 1
    13    6    7 ar
    14    6   31 1
    15    7   32 1
    16    8   12 1
    17    8    9 2
    18    9   10 1
    19   10   11 2
    20   10   13 1
    21   11   12 1
    22   11   33 1
    23   13   14 1
    24   13   34 1
    25   13   35 1
    26   14   15 1
    27   14   45 1
    28   15   16 1
    29   15   36 1
    30   15   37 1
    31   16   25 ar
    32   16   17 ar
    33   17   18 ar
    34   17   38 1
    35   18   19 ar
    36   18   39 1
    37   19   24 ar
    38   19   20 ar
    39   20   21 ar
    40   20   40 1
    41   21   22 ar
    42   21   41 1
    43   22   23 ar
    44   22   42 1
    45   23   24 ar
    46   23   43 1
    47   24   25 ar
    48   25   44 1
@<TRIPOS>MOLECULE
ZINC41010089
   42    43     0     0     0
SMALL
USER_CHARGES

@<TRIPOS>ATOM
      1 C1          0.1371    1.9236   -1.5602 C.3       1 <0>        -0.1564
      2 C2          0.2130    0.4054   -1.3870 C.3       1 <0>        -0.1515
      3 C3         -1.1828   -0.1440   -1.0857 C.3       1 <0>        -0.0101
      4 N1         -1.1099   -1.6018   -0.9195 N.4       1 <0>        -0.5085
      5 C4         -2.4501   -2.1292   -0.6302 C.3       1 <0>         0.0785
      6 C5         -2.3753   -3.6247   -0.4596 C.2       1 <0>        -0.0146
      7 C6         -2.2551   -4.1632    0.7830 C.2       1 <0>        -0.1852
      8 S1         -2.2150   -5.9063    0.3847 S.3       1 <0>         0.0870
      9 C7         -2.3622   -5.7278   -1.3883 C.2       1 <0>         0.1979
     10 N2         -2.4314   -4.4096   -1.5098 N.2       1 <0>        -0.5001
     11 C8         -2.4016   -6.7702   -2.4364 C.ar      1 <0>        -0.0594
     12 C9         -1.4605   -7.8005   -2.4357 C.ar      1 <0>        -0.0370
     13 C10        -1.5028   -8.7699   -3.4164 C.ar      1 <0>        -0.1280
     14 C11        -2.4752   -8.7219   -4.3994 C.ar      1 <0>        -0.0376
     15 C12        -3.4109   -7.7028   -4.4059 C.ar      1 <0>        -0.1305
     16 C13        -3.3837   -6.7309   -3.4270 C.ar      1 <0>        -0.0218
     17 C14        -4.4081   -5.6256   -3.4315 C.3       1 <0>        -0.1134
     18 C15        -2.5151   -9.7839   -5.4678 C.3       1 <0>        -0.1265
     19 C16        -0.4000   -7.8538   -1.3663 C.3       1 <0>        -0.1282
     20 H1          1.1315    2.3150   -1.7749 H         1 <0>         0.0775
     21 H2         -0.5333    2.1621   -2.3860 H         1 <0>         0.0676
     22 H3         -0.2411    2.3755   -0.6432 H         1 <0>         0.0674
     23 H4          0.5911   -0.0464   -2.3041 H         1 <0>         0.0862
     24 H5          0.8834    0.1669   -0.5613 H         1 <0>         0.0860
     25 H6         -1.5609    0.3078   -0.1687 H         1 <0>         0.1329
     26 H7         -1.8532    0.0944   -1.9115 H         1 <0>         0.1329
     27 H8         -0.7599   -2.0200   -1.7684 H         1 <0>         0.4312
     28 H9         -2.8282   -1.6774    0.2869 H         1 <0>         0.1448
     29 H10        -3.1204   -1.8908   -1.4559 H         1 <0>         0.1442
     30 H11        -2.1991   -3.6739    1.7442 H         1 <0>         0.2084
     31 H12        -0.7750   -9.5679   -3.4170 H         1 <0>         0.1357
     32 H13        -4.1673   -7.6707   -5.1762 H         1 <0>         0.1351
     33 H14        -3.9993   -4.7534   -3.9416 H         1 <0>         0.0793
     34 H15        -5.3047   -5.9634   -3.9512 H         1 <0>         0.0733
     35 H16        -4.6612   -5.3607   -2.4050 H         1 <0>         0.0615
     36 H17        -3.1471  -10.6082   -5.1374 H         1 <0>         0.0813
     37 H18        -2.9212   -9.3602   -6.3863 H         1 <0>         0.0741
     38 H19        -1.5057  -10.1515   -5.6525 H         1 <0>         0.0742
     39 H20        -0.7664   -8.4346   -0.5199 H         1 <0>         0.0819
     40 H21         0.4977   -8.3238   -1.7680 H         1 <0>         0.0827
     41 H22        -0.1641   -6.8417   -1.0377 H         1 <0>         0.0613
     42 H23        -0.4894   -1.8225   -0.1551 H         1 <0>         0.4258
@<TRIPOS>BOND
     1    1    2 1
     2    1   20 1
     3    1   21 1
     4    1   22 1
     5    2    3 1
     6    2   23 1
     7    2   24 1
     8    3    4 1
     9    3   25 1
    10    3   26 1
    11    4    5 1
    12    4   27 1
    13    4   42 1
    14    5    6 1
    15    5   28 1
    16    5   29 1
    17    6   10 1
    18    6    7 2
    19    7    8 1
    20    7   30 1
    21    8    9 1
    22    9   10 2
    23    9   11 1
    24   11   16 ar
    25   11   12 ar
    26   12   13 ar
    27   12   19 1
    28   13   14 ar
    29   13   31 1
    30   14   15 ar
    31   14   18 1
    32   15   16 ar
    33   15   32 1
    34   16   17 1
    35   17   33 1
    36   17   34 1
    37   17   35 1
    38   18   36 1
    39   18   37 1
    40   18   38 1
    41   19   39 1
    42   19   40 1
    43   19   41 1
@<TRIPOS>MOLECULE
ZINC59612010
   30    32     0     0     0
SMALL
USER_CHARGES

@<TRIPOS>ATOM
      1 C1         -0.0167    1.3786    0.0096 C.ar      1 <0>        -0.1080
      2 C2          1.1676    2.0879    0.0021 C.ar      1 <0>        -0.0809
      3 C3          2.3841    1.4084   -0.0131 C.ar      1 <0>        -0.0061
      4 C4          2.3983    0.0149   -0.0207 C.ar      1 <0>        -0.0990
      5 C5          1.2077   -0.6850   -0.0131 C.ar      1 <0>        -0.0354
      6 C6          0.0021   -0.0041    0.0020 C.ar      1 <0>        -0.1086
      7 Cl1         1.2226   -2.4209   -0.0230 Cl        1 <0>        -0.0719
      8 C7          3.6597    2.1659   -0.0217 C.2       1 <0>         0.1030
      9 C8          4.8605    1.5007   -0.0419 C.2       1 <0>        -0.2128
     10 S1          6.0012    2.8778   -0.0434 S.3       1 <0>         0.0121
     11 C9          4.7769    4.1801   -0.0173 C.2       1 <0>         0.2016
     12 N1          3.6508    3.4835   -0.0155 N.2       1 <0>        -0.5060
     13 C10         4.9700    5.6444   -0.0068 C.ar      1 <0>        -0.0516
     14 C11         3.8614    6.4950    0.0202 C.ar      1 <0>        -0.0758
     15 C12         4.0392    7.8493    0.0300 C.ar      1 <0>        -0.0924
     16 C13         5.3316    8.3849    0.0130 C.ar      1 <0>        -0.0986
     17 C14         6.4409    7.5328   -0.0140 C.ar      1 <0>        -0.0891
     18 C15         6.2615    6.1786   -0.0180 C.ar      1 <0>        -0.0986
     19 C16         5.5242    9.8457    0.0230 C.2       1 <0>         0.5159
     20 O1          4.5541   10.5904    0.0462 O.co2     1 <0>        -0.6805
     21 O2          6.6544   10.3136    0.0081 O.co2     1 <0>        -0.6813
     22 H1         -0.9598    1.9047    0.0260 H         1 <0>         0.1359
     23 H2          1.1513    3.1677    0.0077 H         1 <0>         0.1419
     24 H3          3.3383   -0.5167   -0.0328 H         1 <0>         0.1344
     25 H4         -0.9269   -0.5548    0.0079 H         1 <0>         0.1335
     26 H5          5.0607    0.4394   -0.0533 H         1 <0>         0.1970
     27 H6          2.8638    6.0813    0.0330 H         1 <0>         0.1285
     28 H7          3.1823    8.5064    0.0505 H         1 <0>         0.1364
     29 H8          7.4388    7.9455   -0.0276 H         1 <0>         0.1366
     30 H9          7.1178    5.5207   -0.0344 H         1 <0>         0.1196
@<TRIPOS>BOND
     1    1    6 ar
     2    1    2 ar
     3    1   22 1
     4    2    3 ar
     5    2   23 1
     6    3    4 ar
     7    3    8 1
     8    4    5 ar
     9    4   24 1
    10    5    6 ar
    11    5    7 1
    12    6   25 1
    13    8   12 1
    14    8    9 2
    15    9   10 1
    16    9   26 1
    17   10   11 1
    18   11   12 2
    19   11   13 1
    20   13   18 ar
    21   13   14 ar
    22   14   15 ar
    23   14   27 1
    24   15   16 ar
    25   15   28 1
    26   16   17 ar
    27   16   19 1
    28   17   18 ar
    29   17   29 1
    30   18   30 1
    31   19   20 2
    32   19   21 1
@<TRIPOS>MOLECULE
ZINC88552695
   34    35     0     0     0
SMALL
USER_CHARGES

@<TRIPOS>ATOM
      1 C1         -0.0178    1.4648    0.0101 C.3       1 <0>        -0.0467
      2 N1          0.0021   -0.0041    0.0020 N.4       1 <0>        -0.5086
      3 C2          0.6897   -0.4778   -1.2066 C.3       1 <0>         0.0770
      4 C3          0.7101   -1.9847   -1.2149 C.2       1 <0>        -0.0098
      5 C4         -0.2481   -2.6750   -1.8886 C.2       1 <0>        -0.1845
      6 S1          0.2638   -4.3567   -1.5592 S.3       1 <0>         0.0929
      7 C5          1.6939   -3.9576   -0.5629 C.2       1 <0>         0.1883
      8 N2          1.6558   -2.6326   -0.5763 N.2       1 <0>        -0.5099
      9 C6          2.6617   -4.8620    0.0944 C.ar      1 <0>        -0.0453
     10 C7          3.7172   -4.3360    0.8407 C.ar      1 <0>        -0.0567
     11 C8          4.6167   -5.1851    1.4513 C.ar      1 <0>        -0.1206
     12 C9          4.4741   -6.5557    1.3251 C.ar      1 <0>        -0.0620
     13 C10         3.4304   -7.0834    0.5864 C.ar      1 <0>        -0.0849
     14 C11         2.5202   -6.2451   -0.0242 C.ar      1 <0>        -0.0627
     15 C12         3.2834   -8.5774    0.4536 C.3       1 <0>         0.0962
     16 O1          2.4663   -9.0720    1.5164 O.3       1 <0>        -0.3866
     17 C13         2.2628  -10.4861    1.4834 C.3       1 <0>         0.0286
     18 H1          1.0047    1.8421    0.0024 H         1 <0>         0.1251
     19 H2         -0.5450    1.8259   -0.8730 H         1 <0>         0.1250
     20 H3         -0.5280    1.8163    0.9069 H         1 <0>         0.1276
     21 H4          0.4901   -0.3383    0.8195 H         1 <0>         0.4333
     22 H5          0.1625   -0.1167   -2.0897 H         1 <0>         0.1456
     23 H6          1.7123   -0.1005   -1.2143 H         1 <0>         0.1449
     24 H7         -1.0862   -2.3092   -2.4632 H         1 <0>         0.2101
     25 H8          3.8298   -3.2664    0.9396 H         1 <0>         0.1363
     26 H9          5.4341   -4.7793    2.0288 H         1 <0>         0.1397
     27 H10         5.1810   -7.2162    1.8051 H         1 <0>         0.1370
     28 H11         1.7030   -6.6584   -0.5966 H         1 <0>         0.1295
     29 H12         2.8170   -8.8129   -0.5031 H         1 <0>         0.0629
     30 H13         4.2667   -9.0451    0.5033 H         1 <0>         0.0671
     31 H14         1.7752  -10.7612    0.5481 H         1 <0>         0.0448
     32 H15         3.2249  -10.9934    1.5545 H         1 <0>         0.0465
     33 H16         1.6330  -10.7822    2.3223 H         1 <0>         0.0914
     34 H17        -0.9445   -0.3533    0.0092 H         1 <0>         0.4284
@<TRIPOS>BOND
     1    1    2 1
     2    1   18 1
     3    1   19 1
     4    1   20 1
     5    2    3 1
     6    2   21 1
     7    2   34 1
     8    3    4 1
     9    3   22 1
    10    3   23 1
    11    4    8 1
    12    4    5 2
    13    5    6 1
    14    5   24 1
    15    6    7 1
    16    7    8 2
    17    7    9 1
    18    9   14 ar
    19    9   10 ar
    20   10   11 ar
    21   10   25 1
    22   11   12 ar
    23   11   26 1
    24   12   13 ar
    25   12   27 1
    26   13   14 ar
    27   13   15 1
    28   14   28 1
    29   15   16 1
    30   15   29 1
    31   15   30 1
    32   16   17 1
    33   17   31 1
    34   17   32 1
    35   17   33 1
@<TRIPOS>MOLECULE
ZINC41010070
   39    40     0     0     0
SMALL
USER_CHARGES

@<TRIPOS>ATOM
      1 C1         -1.4361    1.9308    0.7879 C.3       1 <0>        -0.1564
      2 C2         -1.3016    0.4162    0.6181 C.3       1 <0>        -0.1515
      3 C3         -0.3164   -0.1276    1.6547 C.3       1 <0>        -0.0101
      4 N1         -0.1872   -1.5818    1.4917 N.4       1 <0>        -0.5085
      5 C4          0.7587   -2.1040    2.4870 C.3       1 <0>         0.0785
      6 C5          0.8911   -3.5959    2.3198 C.2       1 <0>        -0.0137
      7 C6          1.9038   -4.1101    1.5724 C.2       1 <0>        -0.1826
      8 S1          1.5704   -5.8605    1.7248 S.3       1 <0>         0.0873
      9 C7          0.1228   -5.7166    2.7644 C.2       1 <0>         0.1934
     10 N2          0.0325   -4.4010    2.8997 N.2       1 <0>        -0.5005
     11 C8         -0.7384   -6.7792    3.3264 C.ar      1 <0>        -0.0565
     12 C9         -1.1824   -7.8240    2.5145 C.ar      1 <0>        -0.0726
     13 C10        -1.9856   -8.8121    3.0449 C.ar      1 <0>        -0.1256
     14 C11        -2.3513   -8.7689    4.3787 C.ar      1 <0>        -0.0420
     15 C12        -1.9150   -7.7359    5.1887 C.ar      1 <0>        -0.1244
     16 C13        -1.1060   -6.7446    4.6719 C.ar      1 <0>        -0.0255
     17 C14        -0.6260   -5.6235    5.5573 C.3       1 <0>        -0.1135
     18 C15        -3.2290   -9.8518    4.9515 C.3       1 <0>        -0.1270
     19 H1         -0.4627    2.4003    0.6453 H         1 <0>         0.0674
     20 H2         -2.1379    2.3183    0.0494 H         1 <0>         0.0775
     21 H3         -1.8034    2.1530    1.7898 H         1 <0>         0.0676
     22 H4         -2.2749   -0.0532    0.7606 H         1 <0>         0.0862
     23 H5         -0.9343    0.1941   -0.3838 H         1 <0>         0.0860
     24 H6          0.6570    0.3418    1.5122 H         1 <0>         0.1329
     25 H7         -0.6837    0.0945    2.6566 H         1 <0>         0.1330
     26 H8         -1.0883   -2.0164    1.6237 H         1 <0>         0.4313
     27 H9          1.7320   -1.6346    2.3445 H         1 <0>         0.1449
     28 H10         0.3914   -1.8819    3.4889 H         1 <0>         0.1444
     29 H11         2.6911   -3.6022    1.0352 H         1 <0>         0.2089
     30 H12        -0.8980   -7.8586    1.4732 H         1 <0>         0.1293
     31 H13        -2.3302   -9.6210    2.4176 H         1 <0>         0.1363
     32 H14        -2.2045   -7.7075    6.2288 H         1 <0>         0.1355
     33 H15        -1.2942   -4.7684    5.4552 H         1 <0>         0.0793
     34 H16        -0.6193   -5.9574    6.5949 H         1 <0>         0.0729
     35 H17         0.3825   -5.3339    5.2623 H         1 <0>         0.0621
     36 H18        -2.6059  -10.6592    5.3360 H         1 <0>         0.0814
     37 H19        -3.8317   -9.4406    5.7613 H         1 <0>         0.0740
     38 H20        -3.8844  -10.2388    4.1712 H         1 <0>         0.0745
     39 H21         0.1528   -1.7875    0.5643 H         1 <0>         0.4259
@<TRIPOS>BOND
     1    1    2 1
     2    1   19 1
     3    1   20 1
     4    1   21 1
     5    2    3 1
     6    2   22 1
     7    2   23 1
     8    3    4 1
     9    3   24 1
    10    3   25 1
    11    4    5 1
    12    4   26 1
    13    4   39 1
    14    5    6 1
    15    5   27 1
    16    5   28 1
    17    6   10 1
    18    6    7 2
    19    7    8 1
    20    7   29 1
    21    8    9 1
    22    9   10 2
    23    9   11 1
    24   11   16 ar
    25   11   12 ar
    26   12   13 ar
    27   12   30 1
    28   13   14 ar
    29   13   31 1
    30   14   15 ar
    31   14   18 1
    32   15   16 ar
    33   15   32 1
    34   16   17 1
    35   17   33 1
    36   17   34 1
    37   17   35 1
    38   18   36 1
    39   18   37 1
    40   18   38 1
@<TRIPOS>MOLECULE
ZINC70840231
   27    28     0     0     0
SMALL
USER_CHARGES

@<TRIPOS>ATOM
      1 C1         -0.0187    1.5258    0.0104 C.3       1 <0>        -0.1774
      2 C2          0.0021   -0.0041    0.0020 C.3       1 <0>         0.1173
      3 H1         -1.0205   -0.3814    0.0098 H         1 <0>         0.1537
      4 C3          0.7309   -0.5033    1.2229 C.2       1 <0>        -0.0084
      5 C4          0.1264   -1.3835    2.0645 C.2       1 <0>        -0.1743
      6 S1          1.4142   -1.6112    3.2844 S.3       1 <0>         0.1035
      7 C5          2.6137   -0.5123    2.5423 C.2       1 <0>         0.1795
      8 N1          1.9522   -0.0933    1.4727 N.2       1 <0>        -0.5109
      9 C6          3.9781   -0.1680    2.9965 C.ar      1 <0>        -0.0333
     10 C7          4.7555    0.7292    2.2624 C.ar      1 <0>        -0.0517
     11 C8          6.0275    1.0470    2.6914 C.ar      1 <0>        -0.1110
     12 C9          6.5336    0.4786    3.8468 C.ar      1 <0>        -0.0571
     13 C10         5.7682   -0.4119    4.5797 C.ar      1 <0>        -0.0911
     14 C11         4.4915   -0.7340    4.1637 C.ar      1 <0>        -0.0586
     15 Br1         6.4695   -1.1831    6.1575 Br        1 <0>        -0.0217
     16 N2          0.6897   -0.4778   -1.2066 N.4       1 <0>        -0.6341
     17 H2          1.0039    1.9031    0.0027 H         1 <0>         0.0899
     18 H3         -0.5459    1.8868   -0.8726 H         1 <0>         0.0867
     19 H4         -0.5289    1.8773    0.9072 H         1 <0>         0.1039
     20 H5         -0.8587   -1.8231    2.0112 H         1 <0>         0.2117
     21 H6          4.3620    1.1734    1.3601 H         1 <0>         0.1408
     22 H7          6.6298    1.7408    2.1237 H         1 <0>         0.1470
     23 H8          7.5302    0.7305    4.1781 H         1 <0>         0.1464
     24 H9          3.8933   -1.4255    4.7385 H         1 <0>         0.1386
     25 H10         1.6363   -0.1286   -1.2138 H         1 <0>         0.4379
     26 H11         0.7033   -1.4867   -1.2121 H         1 <0>         0.4349
     27 H12         0.2017   -0.1436   -2.0240 H         1 <0>         0.4377
@<TRIPOS>BOND
     1    1    2 1
     2    1   17 1
     3    1   18 1
     4    1   19 1
     5    2    3 1
     6    2    4 1
     7    2   16 1
     8    4    8 1
     9    4    5 2
    10    5    6 1
    11    5   20 1
    12    6    7 1
    13    7    8 2
    14    7    9 1
    15    9   14 ar
    16    9   10 ar
    17   10   11 ar
    18   10   21 1
    19   11   12 ar
    20   11   22 1
    21   12   13 ar
    22   12   23 1
    23   13   14 ar
    24   13   15 1
    25   14   24 1
    26   16   25 1
    27   16   26 1
    28   16   27 1
@<TRIPOS>MOLECULE
ZINC70840226
   27    28     0     0     0
SMALL
USER_CHARGES

@<TRIPOS>ATOM
      1 C1         -0.0187    1.5258    0.0104 C.3       1 <0>        -0.1750
      2 C2          0.0021   -0.0041    0.0020 C.3       1 <0>         0.1096
      3 H1         -1.0205   -0.3814    0.0098 H         1 <0>         0.1581
      4 C3          0.7074   -0.4901   -1.2379 C.2       1 <0>         0.0402
      5 C4          1.7603   -1.3438   -1.1319 C.2       1 <0>        -0.2596
      6 S1          2.1787   -1.5671   -2.8564 S.3       1 <0>         0.1105
      7 C5          0.9092   -0.5021   -3.5280 C.2       1 <0>         0.1936
      8 N1          0.3031   -0.0942   -2.4219 N.2       1 <0>        -0.4976
      9 C6          0.6120   -0.1700   -4.9380 C.ar      1 <0>        -0.0377
     10 C7         -0.4346    0.7001   -5.2473 C.ar      1 <0>        -0.0467
     11 C8         -0.7069    1.0065   -6.5645 C.ar      1 <0>        -0.1110
     12 C9          0.0549    0.4536   -7.5785 C.ar      1 <0>        -0.0548
     13 C10         1.0943   -0.4101   -7.2789 C.ar      1 <0>        -0.0928
     14 C11         1.3802   -0.7205   -5.9642 C.ar      1 <0>        -0.0570
     15 Br1         2.1293   -1.1604   -8.6724 Br        1 <0>        -0.0224
     16 N2          0.7126   -0.4907    1.1921 N.4       1 <0>        -0.6350
     17 H2          1.0039    1.9031    0.0027 H         1 <0>         0.0808
     18 H3         -0.5459    1.8868   -0.8726 H         1 <0>         0.1150
     19 H4         -0.5289    1.8773    0.9072 H         1 <0>         0.0885
     20 H5          2.2175   -1.7689   -0.2507 H         1 <0>         0.1992
     21 H6         -1.0304    1.1323   -4.4570 H         1 <0>         0.1441
     22 H7         -1.5167    1.6794   -6.8048 H         1 <0>         0.1483
     23 H8         -0.1626    0.6965   -8.6081 H         1 <0>         0.1469
     24 H9          2.1942   -1.3910   -5.7310 H         1 <0>         0.1383
     25 H10         0.2403   -0.1653    2.0223 H         1 <0>         0.4443
     26 H11         0.7262   -1.4996    1.1866 H         1 <0>         0.4369
     27 H12         1.6592   -0.1414    1.1850 H         1 <0>         0.4352
@<TRIPOS>BOND
     1    1    2 1
     2    1   17 1
     3    1   18 1
     4    1   19 1
     5    2    3 1
     6    2    4 1
     7    2   16 1
     8    4    8 1
     9    4    5 2
    10    5    6 1
    11    5   20 1
    12    6    7 1
    13    7    8 2
    14    7    9 1
    15    9   14 ar
    16    9   10 ar
    17   10   11 ar
    18   10   21 1
    19   11   12 ar
    20   11   22 1
    21   12   13 ar
    22   12   23 1
    23   13   14 ar
    24   13   15 1
    25   14   24 1
    26   16   25 1
    27   16   26 1
    28   16   27 1
@<TRIPOS>MOLECULE
ZINC40999763
   35    37     0     0     0
SMALL
USER_CHARGES

@<TRIPOS>ATOM
      1 C1          3.9154    1.3886   -3.6186 C.ar      1 <0>        -0.1461
      2 C2          3.9453    2.0882   -2.4263 C.ar      1 <0>        -0.0793
      3 C3          3.8350    1.4142   -1.2257 C.ar      1 <0>        -0.1405
      4 C4          3.6937    0.0339   -1.2168 C.ar      1 <0>         0.1132
      5 C5          3.6635   -0.6657   -2.4147 C.ar      1 <0>        -0.1965
      6 C6          3.7746    0.0131   -3.6126 C.ar      1 <0>        -0.0819
      7 O1          3.5855   -0.6317   -0.0370 O.3       1 <0>        -0.2567
      8 C7          3.4586   -1.9841   -0.0767 C.ar      1 <0>         0.0949
      9 C8          2.1972   -2.5612   -0.1444 C.ar      1 <0>        -0.0918
     10 C9          2.0624   -3.9363   -0.1850 C.ar      1 <0>        -0.1028
     11 C10         3.1807   -4.7448   -0.1586 C.ar      1 <0>        -0.0619
     12 C11         4.4523   -4.1738   -0.0911 C.ar      1 <0>        -0.0267
     13 C12         4.5874   -2.7860   -0.0555 C.ar      1 <0>        -0.0950
     14 C13         5.6526   -5.0371   -0.0622 C.2       1 <0>         0.1812
     15 N1          5.7389   -6.3594   -0.0967 N.2       1 <0>        -0.5052
     16 C14         6.9012   -6.9675   -0.0621 C.2       1 <0>        -0.0141
     17 C15         8.0459   -6.2375    0.0107 C.2       1 <0>        -0.1812
     18 S1          7.3787   -4.5781    0.0210 S.3       1 <0>         0.1027
     19 C16         6.9671   -8.4725   -0.1024 C.3       1 <0>         0.0798
     20 N2          6.8057   -9.0063    1.2567 N.4       1 <0>        -0.6351
     21 H1          3.9976    1.9180   -4.5564 H         1 <0>         0.1290
     22 H2          4.0553    3.1626   -2.4338 H         1 <0>         0.1354
     23 H3          3.8592    1.9610   -0.2946 H         1 <0>         0.1352
     24 H4          3.5540   -1.7402   -2.4105 H         1 <0>         0.1244
     25 H5          3.7515   -0.5310   -4.5452 H         1 <0>         0.1276
     26 H6          1.3186   -1.9335   -0.1650 H         1 <0>         0.1449
     27 H7          1.0789   -4.3795   -0.2372 H         1 <0>         0.1466
     28 H8          3.0717   -5.8188   -0.1897 H         1 <0>         0.1416
     29 H9          5.5690   -2.3384   -0.0070 H         1 <0>         0.1373
     30 H10         9.0735   -6.5679    0.0474 H         1 <0>         0.2117
     31 H11         6.1695   -8.8542   -0.7397 H         1 <0>         0.1477
     32 H12         7.9322   -8.7834   -0.5025 H         1 <0>         0.1487
     33 H13         6.8498  -10.0140    1.2297 H         1 <0>         0.4406
     34 H14         7.5440   -8.6530    1.8467 H         1 <0>         0.4339
     35 H15         5.9123   -8.7186    1.6271 H         1 <0>         0.4384
@<TRIPOS>BOND
     1    1    6 ar
     2    1    2 ar
     3    1   21 1
     4    2    3 ar
     5    2   22 1
     6    3    4 ar
     7    3   23 1
     8    4    5 ar
     9    4    7 1
    10    5    6 ar
    11    5   24 1
    12    6   25 1
    13    7    8 1
    14    8   13 ar
    15    8    9 ar
    16    9   10 ar
    17    9   26 1
    18   10   11 ar
    19   10   27 1
    20   11   12 ar
    21   11   28 1
    22   12   13 ar
    23   12   14 1
    24   13   29 1
    25   14   18 1
    26   14   15 2
    27   15   16 1
    28   16   17 2
    29   16   19 1
    30   17   18 1
    31   17   30 1
    32   19   20 1
    33   19   31 1
    34   19   32 1
    35   20   33 1
    36   20   34 1
    37   20   35 1
@<TRIPOS>MOLECULE
ZINC40420363
   33    34     0     0     0
SMALL
USER_CHARGES

@<TRIPOS>ATOM
      1 C1         -0.0187    1.5258    0.0104 C.3       1 <0>        -0.1566
      2 C2          0.0021   -0.0041    0.0020 C.3       1 <0>        -0.1515
      3 C3         -1.4333   -0.5336    0.0129 C.3       1 <0>        -0.0103
      4 N1         -1.4134   -2.0025    0.0048 N.4       1 <0>        -0.5085
      5 C4         -2.7915   -2.5110    0.0152 C.3       1 <0>         0.0780
      6 C5         -2.7711   -4.0178    0.0069 C.2       1 <0>        -0.0101
      7 C6         -2.8584   -4.7064    1.1759 C.2       1 <0>        -0.1798
      8 S1         -2.7874   -6.3889    0.5738 S.3       1 <0>         0.1023
      9 C7         -2.6497   -5.9925   -1.1643 C.2       1 <0>         0.1775
     10 N2         -2.6745   -4.6676   -1.1292 N.2       1 <0>        -0.5040
     11 C8         -2.5425   -6.8986   -2.3278 C.ar      1 <0>        -0.0268
     12 C9         -2.4369   -6.3741   -3.6167 C.ar      1 <0>        -0.0579
     13 C10        -2.3367   -7.2245   -4.6983 C.ar      1 <0>        -0.0914
     14 C11        -2.3412   -8.5957   -4.5070 C.ar      1 <0>        -0.0635
     15 C12        -2.4462   -9.1219   -3.2308 C.ar      1 <0>        -0.0864
     16 C13        -2.5407   -8.2816   -2.1409 C.ar      1 <0>        -0.0783
     17 Br1        -2.2041   -9.7544   -5.9951 Br        1 <0>        -0.0228
     18 H1          1.0039    1.9031    0.0027 H         1 <0>         0.0777
     19 H2         -0.5459    1.8868   -0.8726 H         1 <0>         0.0677
     20 H3         -0.5289    1.8773    0.9072 H         1 <0>         0.0675
     21 H4          0.5123   -0.3556   -0.8948 H         1 <0>         0.0864
     22 H5          0.5293   -0.3651    0.8851 H         1 <0>         0.0861
     23 H6         -1.9435   -0.1821    0.9097 H         1 <0>         0.1332
     24 H7         -1.9605   -0.1726   -0.8702 H         1 <0>         0.1334
     25 H8         -0.9411   -2.3279   -0.8254 H         1 <0>         0.4311
     26 H9         -3.3017   -2.1594    0.9120 H         1 <0>         0.1462
     27 H10        -3.3187   -2.1499   -0.8678 H         1 <0>         0.1454
     28 H11        -2.9457   -4.3391    2.1878 H         1 <0>         0.2115
     29 H12        -2.4339   -5.3047   -3.7672 H         1 <0>         0.1440
     30 H13        -2.2549   -6.8198   -5.6962 H         1 <0>         0.1469
     31 H14        -2.4499  -10.1924   -3.0879 H         1 <0>         0.1486
     32 H15        -2.6177   -8.6932   -1.1454 H         1 <0>         0.1382
     33 H16        -0.9254   -2.3367    0.8222 H         1 <0>         0.4262
@<TRIPOS>BOND
     1    1    2 1
     2    1   18 1
     3    1   19 1
     4    1   20 1
     5    2    3 1
     6    2   21 1
     7    2   22 1
     8    3    4 1
     9    3   23 1
    10    3   24 1
    11    4    5 1
    12    4   25 1
    13    4   33 1
    14    5    6 1
    15    5   26 1
    16    5   27 1
    17    6   10 1
    18    6    7 2
    19    7    8 1
    20    7   28 1
    21    8    9 1
    22    9   10 2
    23    9   11 1
    24   11   16 ar
    25   11   12 ar
    26   12   13 ar
    27   12   29 1
    28   13   14 ar
    29   13   30 1
    30   14   15 ar
    31   14   17 1
    32   15   16 ar
    33   15   31 1
    34   16   32 1
@<TRIPOS>MOLECULE
ZINC80803391
   40    42     0     0     0
SMALL
USER_CHARGES

@<TRIPOS>ATOM
      1 C1         -0.0187    1.5258    0.0104 C.3       1 <0>        -0.1799
      2 C2          0.0021   -0.0041    0.0020 C.3       1 <0>         0.1155
      3 H1          0.5123   -0.3556   -0.8948 H         1 <0>         0.1503
      4 C3          0.7309   -0.5033    1.2229 C.2       1 <0>         0.0033
      5 C4          2.0865   -0.6103    1.2105 C.2       1 <0>        -0.1812
      6 S1          2.3837   -1.2291    2.8620 S.3       1 <0>         0.0969
      7 C5          0.6753   -1.2774    3.3871 C.2       1 <0>         0.1887
      8 N1          0.0591   -0.8303    2.3014 N.2       1 <0>        -0.5379
      9 C6          0.1042   -1.6971    4.6838 C.ar      1 <0>        -0.0469
     10 C7         -1.2777   -1.6618    4.8829 C.ar      1 <0>        -0.0582
     11 C8         -1.8089   -2.0534    6.0912 C.ar      1 <0>        -0.1176
     12 C9         -0.9673   -2.4853    7.1164 C.ar      1 <0>         0.0028
     13 C10         0.4130   -2.5205    6.9186 C.ar      1 <0>        -0.1108
     14 C11         0.9457   -2.1347    5.7090 C.ar      1 <0>        -0.0755
     15 C12        -1.5404   -2.9069    8.4174 C.ar      1 <0>        -0.0700
     16 C13        -2.9198   -2.8780    8.6166 C.ar      1 <0>        -0.1021
     17 C14        -3.4475   -3.2720    9.8293 C.ar      1 <0>        -0.1184
     18 C15        -2.6105   -3.6945   10.8464 C.ar      1 <0>        -0.1045
     19 C16        -1.2409   -3.7252   10.6545 C.ar      1 <0>        -0.1173
     20 C17        -0.7023   -3.3391    9.4440 C.ar      1 <0>        -0.1014
     21 N2         -1.3761   -0.5125    0.0124 N.4       1 <0>        -0.5005
     22 C18        -2.0500   -0.1262   -1.2343 C.3       1 <0>        -0.0522
     23 H2          1.0039    1.9031    0.0027 H         1 <0>         0.1062
     24 H3         -0.5459    1.8868   -0.8726 H         1 <0>         0.0896
     25 H4         -0.5289    1.8773    0.9072 H         1 <0>         0.0839
     26 H5          2.7889   -0.3849    0.4217 H         1 <0>         0.2091
     27 H6         -1.9295   -1.3271    4.0894 H         1 <0>         0.1333
     28 H7         -2.8775   -2.0259    6.2455 H         1 <0>         0.1382
     29 H8          1.0638   -2.8547    7.7131 H         1 <0>         0.1405
     30 H9          2.0141   -2.1665    5.5545 H         1 <0>         0.1315
     31 H10        -3.5742   -2.5477    7.8235 H         1 <0>         0.1262
     32 H11        -4.5161   -3.2501    9.9848 H         1 <0>         0.1287
     33 H12        -3.0279   -4.0012   11.7941 H         1 <0>         0.1282
     34 H13        -0.5922   -4.0560   11.4521 H         1 <0>         0.1294
     35 H14         0.3668   -3.3677    9.2937 H         1 <0>         0.1276
     36 H15        -1.3629   -1.5185    0.0898 H         1 <0>         0.4316
     37 H16        -2.0643    0.9605   -1.3179 H         1 <0>         0.1254
     38 H17        -1.5132   -0.5489   -2.0836 H         1 <0>         0.1242
     39 H18        -3.0726   -0.5034   -1.2266 H         1 <0>         0.1284
     40 H19        -1.8730   -0.1212    0.7986 H         1 <0>         0.4346
@<TRIPOS>BOND
     1    1    2 1
     2    1   23 1
     3    1   24 1
     4    1   25 1
     5    2    3 1
     6    2    4 1
     7    2   21 1
     8    4    8 1
     9    4    5 2
    10    5    6 1
    11    5   26 1
    12    6    7 1
    13    7    8 2
    14    7    9 1
    15    9   14 ar
    16    9   10 ar
    17   10   11 ar
    18   10   27 1
    19   11   12 ar
    20   11   28 1
    21   12   13 ar
    22   12   15 1
    23   13   14 ar
    24   13   29 1
    25   14   30 1
    26   15   20 ar
    27   15   16 ar
    28   16   17 ar
    29   16   31 1
    30   17   18 ar
    31   17   32 1
    32   18   19 ar
    33   18   33 1
    34   19   20 ar
    35   19   34 1
    36   20   35 1
    37   21   22 1
    38   21   36 1
    39   21   40 1
    40   22   37 1
    41   22   38 1
    42   22   39 1
@<TRIPOS>MOLECULE
ZINC80803395
   40    42     0     0     0
SMALL
USER_CHARGES

@<TRIPOS>ATOM
      1 C1         -0.0187    1.5258    0.0104 C.3       1 <0>        -0.1798
      2 C2          0.0021   -0.0041    0.0020 C.3       1 <0>         0.1155
      3 H1          0.5123   -0.3556   -0.8948 H         1 <0>         0.1502
      4 C3         -1.4117   -0.5257    0.0127 C.2       1 <0>         0.0035
      5 C4         -2.0956   -0.6637   -1.1545 C.2       1 <0>        -0.1813
      6 S1         -3.6553   -1.2968   -0.5503 S.3       1 <0>         0.0967
      7 C5         -3.2276   -1.3086    1.1858 C.2       1 <0>         0.1890
      8 N1         -1.9830   -0.8525    1.1477 N.2       1 <0>        -0.5380
      9 C6         -4.0400   -1.7211    2.3490 C.ar      1 <0>        -0.0470
     10 C7         -3.5060   -1.6433    3.6372 C.ar      1 <0>        -0.0580
     11 C8         -4.2640   -2.0275    4.7205 C.ar      1 <0>        -0.1176
     12 C9         -5.5649   -2.4943    4.5318 C.ar      1 <0>         0.0029
     13 C10        -6.0989   -2.5727    3.2455 C.ar      1 <0>        -0.1108
     14 C11        -5.3445   -2.1836    2.1615 C.ar      1 <0>        -0.0755
     15 C12        -6.3804   -2.9077    5.6992 C.ar      1 <0>        -0.0700
     16 C13        -5.8517   -2.8256    6.9863 C.ar      1 <0>        -0.1021
     17 C14        -6.6155   -3.2113    8.0691 C.ar      1 <0>        -0.1184
     18 C15        -7.9033   -3.6793    7.8788 C.ar      1 <0>        -0.1045
     19 C16        -8.4332   -3.7630    6.6038 C.ar      1 <0>        -0.1173
     20 C17        -7.6808   -3.3747    5.5141 C.ar      1 <0>        -0.1014
     21 N2          0.7126   -0.4907    1.1921 N.4       1 <0>        -0.5005
     22 C18         2.1220   -0.0825    1.1220 C.3       1 <0>        -0.0521
     23 H2          1.0039    1.9031    0.0027 H         1 <0>         0.0896
     24 H3         -0.5459    1.8868   -0.8726 H         1 <0>         0.1062
     25 H4         -0.5289    1.8773    0.9072 H         1 <0>         0.0839
     26 H5         -1.7836   -0.4496   -2.1660 H         1 <0>         0.2091
     27 H6         -2.4987   -1.2823    3.7835 H         1 <0>         0.1334
     28 H7         -3.8512   -1.9677    5.7167 H         1 <0>         0.1382
     29 H8         -7.1061   -2.9346    3.1004 H         1 <0>         0.1405
     30 H9         -5.7599   -2.2399    1.1662 H         1 <0>         0.1314
     31 H10        -4.8461   -2.4610    7.1359 H         1 <0>         0.1262
     32 H11        -6.2069   -3.1481    9.0668 H         1 <0>         0.1287
     33 H12        -8.4971   -3.9808    8.7291 H         1 <0>         0.1282
     34 H13        -9.4392   -4.1291    6.4612 H         1 <0>         0.1294
     35 H14        -8.0971   -3.4362    4.5195 H         1 <0>         0.1276
     36 H15         0.2896   -0.0986    2.0201 H         1 <0>         0.4346
     37 H16         2.5788   -0.5061    0.2276 H         1 <0>         0.1242
     38 H17         2.1837    1.0050    1.0814 H         1 <0>         0.1255
     39 H18         2.6492   -0.4436    2.0051 H         1 <0>         0.1284
     40 H19         0.6554   -1.4974    1.2298 H         1 <0>         0.4316
@<TRIPOS>BOND
     1    1    2 1
     2    1   23 1
     3    1   24 1
     4    1   25 1
     5    2    3 1
     6    2    4 1
     7    2   21 1
     8    4    8 1
     9    4    5 2
    10    5    6 1
    11    5   26 1
    12    6    7 1
    13    7    8 2
    14    7    9 1
    15    9   14 ar
    16    9   10 ar
    17   10   11 ar
    18   10   27 1
    19   11   12 ar
    20   11   28 1
    21   12   13 ar
    22   12   15 1
    23   13   14 ar
    24   13   29 1
    25   14   30 1
    26   15   20 ar
    27   15   16 ar
    28   16   17 ar
    29   16   31 1
    30   17   18 ar
    31   17   32 1
    32   18   19 ar
    33   18   33 1
    34   19   20 ar
    35   19   34 1
    36   20   35 1
    37   21   22 1
    38   21   36 1
    39   21   40 1
    40   22   37 1
    41   22   38 1
    42   22   39 1
@<TRIPOS>MOLECULE
ZINC23253563
   45    47     0     0     0
SMALL
USER_CHARGES

@<TRIPOS>ATOM
      1 C1         -0.0187    1.5258    0.0104 C.3       1 <0>        -0.1561
      2 C2          0.0021   -0.0041    0.0020 C.3       1 <0>        -0.1504
      3 C3          0.7182   -0.4975   -1.2568 C.3       1 <0>        -0.0098
      4 N1          0.7381   -1.9663   -1.2649 N.4       1 <0>        -0.3869
      5 C4          1.5484   -2.4509   -0.1396 C.3       1 <0>        -0.0047
      6 C5          1.5540   -3.9812   -0.1366 C.3       1 <0>         0.0263
      7 N2          2.1082   -4.4687   -1.4075 N.3       1 <0>        -0.5354
      8 C6          1.3217   -3.9711   -2.5450 C.3       1 <0>         0.0271
      9 C7          1.3180   -2.4409   -2.5282 C.3       1 <0>        -0.0018
     10 C8          2.1830   -5.9358   -1.4209 C.3       1 <0>         0.1306
     11 C9          2.9738   -6.3875   -2.6216 C.2       1 <0>         0.0475
     12 C10         4.3025   -6.6497   -2.5024 C.2       1 <0>        -0.1788
     13 S1          4.6965   -7.1259   -4.1807 S.3       1 <0>         0.0391
     14 C11         3.0531   -6.9242   -4.8557 C.2       1 <0>         0.1647
     15 N3          2.3800   -6.5336   -3.7826 N.2       1 <0>        -0.5062
     16 C12         2.5731   -7.1403   -6.2375 C.ar      1 <0>        -0.0286
     17 C13         1.2334   -6.9157   -6.5570 C.ar      1 <0>        -0.0709
     18 C14         0.7918   -7.1192   -7.8482 C.ar      1 <0>        -0.1210
     19 C15         1.6740   -7.5454   -8.8250 C.ar      1 <0>        -0.0923
     20 C16         3.0034   -7.7703   -8.5147 C.ar      1 <0>        -0.1145
     21 C17         3.4591   -7.5641   -7.2289 C.ar      1 <0>        -0.0888
     22 H1          1.0039    1.9031    0.0027 H         1 <0>         0.0671
     23 H2         -0.5459    1.8868   -0.8726 H         1 <0>         0.0671
     24 H3         -0.5289    1.8773    0.9072 H         1 <0>         0.0774
     25 H4          0.5293   -0.3651    0.8851 H         1 <0>         0.0858
     26 H5         -1.0205   -0.3814    0.0098 H         1 <0>         0.0851
     27 H6          0.1910   -0.1364   -2.1398 H         1 <0>         0.1306
     28 H7          1.7408   -0.1202   -1.2645 H         1 <0>         0.1300
     29 H8          2.5696   -2.0841   -0.2428 H         1 <0>         0.1372
     30 H9          1.1246   -2.0873    0.7964 H         1 <0>         0.1368
     31 H10         2.1674   -4.3409    0.6895 H         1 <0>         0.1245
     32 H11         0.5344   -4.3483   -0.0197 H         1 <0>         0.0618
     33 H12         1.7656   -4.3235   -3.4760 H         1 <0>         0.1282
     34 H13         0.2982   -4.3381   -2.4678 H         1 <0>         0.0623
     35 H14         0.7234   -2.0698   -3.3630 H         1 <0>         0.1344
     36 H15         2.3404   -2.0741   -2.6191 H         1 <0>         0.1353
     37 H16         2.6733   -6.2829   -0.5114 H         1 <0>         0.1032
     38 H17         1.1763   -6.3505   -1.4719 H         1 <0>         0.0637
     39 H18         4.9428   -6.5874   -1.6349 H         1 <0>         0.2008
     40 H19         0.5436   -6.5837   -5.7952 H         1 <0>         0.1315
     41 H20        -0.2448   -6.9458   -8.0968 H         1 <0>         0.1326
     42 H21         1.3233   -7.7036   -9.8342 H         1 <0>         0.1325
     43 H22         3.6869   -8.1032   -9.2817 H         1 <0>         0.1353
     44 H23         4.4981   -7.7350   -6.9890 H         1 <0>         0.1279
     45 H24        -0.2042   -2.3158   -1.1753 H         1 <0>         0.4201
@<TRIPOS>BOND
     1    1    2 1
     2    1   22 1
     3    1   23 1
     4    1   24 1
     5    2    3 1
     6    2   25 1
     7    2   26 1
     8    3    4 1
     9    3   27 1
    10    3   28 1
    11    4    9 1
    12    4    5 1
    13    4   45 1
    14    5    6 1
    15    5   29 1
    16    5   30 1
    17    6    7 1
    18    6   31 1
    19    6   32 1
    20    7    8 1
    21    7   10 1
    22    8    9 1
    23    8   33 1
    24    8   34 1
    25    9   35 1
    26    9   36 1
    27   10   11 1
    28   10   37 1
    29   10   38 1
    30   11   15 1
    31   11   12 2
    32   12   13 1
    33   12   39 1
    34   13   14 1
    35   14   15 2
    36   14   16 1
    37   16   21 ar
    38   16   17 ar
    39   17   18 ar
    40   17   40 1
    41   18   19 ar
    42   18   41 1
    43   19   20 ar
    44   19   42 1
    45   20   21 ar
    46   20   43 1
    47   21   44 1
@<TRIPOS>MOLECULE
ZINC62786670
   33    34     0     0     0
SMALL
USER_CHARGES

@<TRIPOS>ATOM
      1 C1         -0.0187    1.5258    0.0104 C.3       1 <0>        -0.1859
      2 C2          0.0021   -0.0041    0.0020 C.3       1 <0>         0.0241
      3 C3          0.7421   -0.5109    1.2415 C.3       1 <0>        -0.1843
      4 N1         -1.3761   -0.5125    0.0124 N.4       1 <0>        -0.5065
      5 C4         -2.0500   -0.1262   -1.2343 C.3       1 <0>         0.0751
      6 C5         -3.4638   -0.6478   -1.2236 C.2       1 <0>        -0.0108
      7 C6         -4.4817    0.1532   -0.8121 C.2       1 <0>        -0.1883
      8 S1         -5.8725   -0.9544   -1.0056 S.3       1 <0>         0.1330
      9 C7         -4.9486   -2.3600   -1.6120 C.2       1 <0>         0.1637
     10 N2         -3.7148   -1.8748   -1.6169 N.2       1 <0>        -0.4993
     11 C8         -5.4313   -3.7001   -2.0072 C.ar      1 <0>        -0.0665
     12 C9         -4.5288   -4.6666   -2.4535 C.ar      1 <0>        -0.0253
     13 C10        -4.9847   -5.9152   -2.8209 C.ar      1 <0>        -0.1190
     14 C11        -6.3356   -6.2125   -2.7484 C.ar      1 <0>         0.0182
     15 C12        -7.2373   -5.2598   -2.3070 C.ar      1 <0>        -0.1417
     16 C13        -6.7927   -4.0066   -1.9303 C.ar      1 <0>         0.1443
     17 F1         -7.6723   -3.0787   -1.4937 F         1 <0>        -0.1165
     18 Cl1        -6.9003   -7.7868   -3.2136 Cl        1 <0>        -0.0280
     19 H1          1.0039    1.9031    0.0027 H         1 <0>         0.1074
     20 H2         -0.5459    1.8868   -0.8726 H         1 <0>         0.0815
     21 H3         -0.5289    1.8773    0.9072 H         1 <0>         0.0823
     22 H4          0.5123   -0.3556   -0.8948 H         1 <0>         0.1408
     23 H5          0.2319   -0.1594    2.1383 H         1 <0>         0.0813
     24 H6          0.7568   -1.6008    1.2356 H         1 <0>         0.0818
     25 H7          1.7647   -0.1336    1.2338 H         1 <0>         0.1079
     26 H8         -1.3629   -1.5185    0.0898 H         1 <0>         0.4309
     27 H9         -2.0643    0.9605   -1.3179 H         1 <0>         0.1465
     28 H10        -1.5132   -0.5489   -2.0836 H         1 <0>         0.1452
     29 H11        -4.4575    1.1755   -0.4644 H         1 <0>         0.2109
     30 H12        -3.4750   -4.4370   -2.5112 H         1 <0>         0.1554
     31 H13        -4.2865   -6.6632   -3.1666 H         1 <0>         0.1556
     32 H14        -8.2894   -5.4976   -2.2526 H         1 <0>         0.1622
     33 H15        -1.8730   -0.1212    0.7986 H         1 <0>         0.4242
@<TRIPOS>BOND
     1    1    2 1
     2    1   19 1
     3    1   20 1
     4    1   21 1
     5    2    3 1
     6    2    4 1
     7    2   22 1
     8    3   23 1
     9    3   24 1
    10    3   25 1
    11    4    5 1
    12    4   26 1
    13    4   33 1
    14    5    6 1
    15    5   27 1
    16    5   28 1
    17    6   10 1
    18    6    7 2
    19    7    8 1
    20    7   29 1
    21    8    9 1
    22    9   10 2
    23    9   11 1
    24   11   16 ar
    25   11   12 ar
    26   12   13 ar
    27   12   30 1
    28   13   14 ar
    29   13   31 1
    30   14   15 ar
    31   14   18 1
    32   15   16 ar
    33   15   32 1
    34   16   17 1
@<TRIPOS>MOLECULE
ZINC70840615
   27    28     0     0     0
SMALL
USER_CHARGES

@<TRIPOS>ATOM
      1 C1         -0.0187    1.5258    0.0104 C.3       1 <0>        -0.1776
      2 C2          0.0021   -0.0041    0.0020 C.3       1 <0>         0.1172
      3 H1          0.5123   -0.3556   -0.8948 H         1 <0>         0.1528
      4 C3         -1.4117   -0.5257    0.0127 C.2       1 <0>        -0.0131
      5 C4         -1.8244   -1.3931   -0.9487 C.2       1 <0>        -0.1953
      6 S1         -3.5208   -1.6582   -0.4481 S.3       1 <0>         0.1478
      7 C5         -3.4952   -0.5874    0.9836 C.2       1 <0>         0.1520
      8 N1         -2.2450   -0.1472    0.9538 N.2       1 <0>        -0.4949
      9 C6         -4.5754   -0.2802    1.9446 C.ar      1 <0>        -0.0610
     10 C7         -4.3428    0.6009    3.0045 C.ar      1 <0>         0.1623
     11 C8         -5.3580    0.8835    3.8985 C.ar      1 <0>        -0.1466
     12 C9         -6.6013    0.2966    3.7460 C.ar      1 <0>        -0.0450
     13 C10        -6.8381   -0.5762    2.6994 C.ar      1 <0>        -0.1111
     14 C11        -5.8348   -0.8641    1.7948 C.ar      1 <0>         0.0047
     15 Cl1        -6.1371   -1.9544    0.4782 Cl        1 <0>        -0.0142
     16 F1         -3.1288    1.1744    3.1547 F         1 <0>        -0.1129
     17 N2          0.7126   -0.4907    1.1921 N.4       1 <0>        -0.6343
     18 H2          1.0039    1.9031    0.0027 H         1 <0>         0.0858
     19 H3         -0.5459    1.8868   -0.8726 H         1 <0>         0.1030
     20 H4         -0.5289    1.8773    0.9072 H         1 <0>         0.0906
     21 H5         -1.2792   -1.8073   -1.7839 H         1 <0>         0.2081
     22 H6         -5.1802    1.5637    4.7183 H         1 <0>         0.1570
     23 H7         -7.3910    0.5207    4.4478 H         1 <0>         0.1583
     24 H8         -7.8112   -1.0308    2.5869 H         1 <0>         0.1570
     25 H9          0.2403   -0.1653    2.0223 H         1 <0>         0.4385
     26 H10         0.7262   -1.4996    1.1866 H         1 <0>         0.4341
     27 H11         1.6592   -0.1415    1.1850 H         1 <0>         0.4368
@<TRIPOS>BOND
     1    1    2 1
     2    1   18 1
     3    1   19 1
     4    1   20 1
     5    2    3 1
     6    2    4 1
     7    2   17 1
     8    4    8 1
     9    4    5 2
    10    5    6 1
    11    5   21 1
    12    6    7 1
    13    7    8 2
    14    7    9 1
    15    9   14 ar
    16    9   10 ar
    17   10   11 ar
    18   10   16 1
    19   11   12 ar
    20   11   22 1
    21   12   13 ar
    22   12   23 1
    23   13   14 ar
    24   13   24 1
    25   14   15 1
    26   17   25 1
    27   17   26 1
    28   17   27 1
@<TRIPOS>MOLECULE
ZINC70840611
   27    28     0     0     0
SMALL
USER_CHARGES

@<TRIPOS>ATOM
      1 C1         -0.0187    1.5258    0.0104 C.3       1 <0>        -0.1748
      2 C2          0.0021   -0.0041    0.0020 C.3       1 <0>         0.1090
      3 H1          0.5123   -0.3556   -0.8948 H         1 <0>         0.1569
      4 C3          0.7309   -0.5033    1.2229 C.2       1 <0>         0.0347
      5 C4          0.1265   -1.3832    2.0640 C.2       1 <0>        -0.2802
      6 S1          1.4144   -1.6118    3.2838 S.3       1 <0>         0.1551
      7 C5          2.6143   -0.5132    2.5421 C.2       1 <0>         0.1658
      8 N1          1.9527   -0.0931    1.4727 N.2       1 <0>        -0.4819
      9 C6          3.9784   -0.1699    2.9961 C.ar      1 <0>        -0.0663
     10 C7          4.7577    0.7284    2.2617 C.ar      1 <0>         0.1678
     11 C8          6.0320    1.0446    2.6929 C.ar      1 <0>        -0.1474
     12 C9          6.5360    0.4742    3.8480 C.ar      1 <0>        -0.0425
     13 C10         5.7700   -0.4155    4.5793 C.ar      1 <0>        -0.1128
     14 C11         4.4927   -0.7371    4.1637 C.ar      1 <0>         0.0067
     15 Cl1         3.5312   -1.8486    5.0876 Cl        1 <0>        -0.0158
     16 F1          4.2667    1.2858    1.1332 F         1 <0>        -0.1077
     17 N2         -1.3761   -0.5125    0.0124 N.4       1 <0>        -0.6342
     18 H2          1.0039    1.9031    0.0027 H         1 <0>         0.1157
     19 H3         -0.5459    1.8868   -0.8726 H         1 <0>         0.0875
     20 H4         -0.5289    1.8773    0.9072 H         1 <0>         0.0799
     21 H5         -0.8587   -1.8225    2.0108 H         1 <0>         0.1959
     22 H6          6.6359    1.7382    2.1267 H         1 <0>         0.1583
     23 H7          7.5327    0.7246    4.1802 H         1 <0>         0.1588
     24 H8          6.1704   -0.8571    5.4799 H         1 <0>         0.1572
     25 H9         -1.8641   -0.1783   -0.8050 H         1 <0>         0.4434
     26 H10        -1.3624   -1.5214    0.0069 H         1 <0>         0.4364
     27 H11        -1.8484   -0.1871    0.8426 H         1 <0>         0.4347
@<TRIPOS>BOND
     1    1    2 1
     2    1   18 1
     3    1   19 1
     4    1   20 1
     5    2    3 1
     6    2    4 1
     7    2   17 1
     8    4    8 1
     9    4    5 2
    10    5    6 1
    11    5   21 1
    12    6    7 1
    13    7    8 2
    14    7    9 1
    15    9   14 ar
    16    9   10 ar
    17   10   11 ar
    18   10   16 1
    19   11   12 ar
    20   11   22 1
    21   12   13 ar
    22   12   23 1
    23   13   14 ar
    24   13   24 1
    25   14   15 1
    26   17   25 1
    27   17   26 1
    28   17   27 1
@<TRIPOS>MOLECULE
ZINC21952696
   25    26     0     0     0
SMALL
USER_CHARGES
[2-(p-tolyl)thiazol-4-yl]methanol
@<TRIPOS>ATOM
      1 C1         -2.5541    3.8649    0.0473 C.3       1 <0>        -0.1228
      2 C2         -1.2362    3.1342    0.0308 C.ar      1 <0>        -0.0638
      3 C3         -1.2158    1.7509    0.0173 C.ar      1 <0>        -0.1192
      4 C4         -0.0126    1.0758    0.0080 C.ar      1 <0>        -0.0859
      5 C5          1.1854    1.7914    0.0004 C.ar      1 <0>        -0.0253
      6 C6          1.1578    3.1866    0.0082 C.ar      1 <0>        -0.0652
      7 C7         -0.0520    3.8496    0.0233 C.ar      1 <0>        -0.1226
      8 C8          2.4785    1.0744   -0.0164 C.2       1 <0>         0.1611
      9 N1          3.7110    1.5624   -0.0256 N.2       1 <0>        -0.4958
     10 C9          4.7573    0.7705   -0.0399 C.2       1 <0>         0.0452
     11 C10         4.5861   -0.5782   -0.0456 C.2       1 <0>        -0.1653
     12 S1          2.8009   -0.6842   -0.0217 S.3       1 <0>         0.0044
     13 C11         6.1463    1.3551   -0.0507 C.3       1 <0>         0.1592
     14 O1          7.1078    0.2981   -0.0661 O.3       1 <0>        -0.6017
     15 H1         -3.3776    3.1357    0.0513 H         1 <0>         0.0689
     16 H2         -2.6319    4.5010   -0.8468 H         1 <0>         0.0747
     17 H3         -2.6147    4.4914    0.9494 H         1 <0>         0.0747
     18 H4         -2.1437    1.1982    0.0187 H         1 <0>         0.1319
     19 H5          0.0021   -0.0041    0.0020 H         1 <0>         0.1276
     20 H6          2.0815    3.7462    0.0020 H         1 <0>         0.1357
     21 H7         -0.0748    4.9293    0.0297 H         1 <0>         0.1314
     22 H8          5.3237   -1.3670   -0.0574 H         1 <0>         0.2041
     23 H9          6.2741    1.9801   -0.9468 H         1 <0>         0.0631
     24 H10         6.2922    1.9704    0.8494 H         1 <0>         0.0631
     25 H11         8.1825    0.5323   -0.0756 H         1 <0>         0.4224
@<TRIPOS>BOND
     1    1    2 1
     2    1   15 1
     3    1   16 1
     4    1   17 1
     5    2    7 ar
     6    2    3 ar
     7    3    4 ar
     8    3   18 1
     9    4    5 ar
    10    4   19 1
    11    5    6 ar
    12    5    8 1
    13    6    7 ar
    14    6   20 1
    15    7   21 1
    16    8   12 1
    17    8    9 2
    18    9   10 1
    19   10   11 2
    20   10   13 1
    21   11   12 1
    22   11   22 1
    23   13   14 1
    24   13   23 1
    25   13   24 1
    26   14   25 1
@<TRIPOS>MOLECULE
ZINC84192689
   21    22     0     0     0
SMALL
USER_CHARGES

@<TRIPOS>ATOM
      1 C1         -0.0167    1.3793    0.0096 C.ar      1 <0>        -0.0972
      2 C2          1.1684    2.0932    0.0021 C.ar      1 <0>        -0.1181
      3 C3          2.3774    1.4288   -0.0130 C.ar      1 <0>        -0.0905
      4 C4          2.4033    0.0336   -0.0208 C.ar      1 <0>        -0.0220
      5 C5          1.2044   -0.6806   -0.0131 C.ar      1 <0>        -0.0681
      6 C6          0.0021   -0.0041    0.0020 C.ar      1 <0>        -0.1205
      7 C7          3.6955   -0.6850   -0.0375 C.2       1 <0>         0.1642
      8 N1          3.9328   -1.9891   -0.0523 N.2       1 <0>        -0.4889
      9 C8          5.1581   -2.4586   -0.0660 C.2       1 <0>         0.0515
     10 C9          6.2126   -1.6003   -0.0651 C.2       1 <0>        -0.1849
     11 S1          5.3587   -0.0288   -0.0511 S.3       1 <0>         0.0294
     12 C10         5.3961   -3.9466   -0.0821 C.3       1 <0>        -0.0101
     13 Br1         5.4865   -4.5756   -1.9426 Br        1 <0>        -0.1399
     14 H1         -0.9605    1.9041    0.0260 H         1 <0>         0.1298
     15 H2          1.1469    3.1730    0.0078 H         1 <0>         0.1325
     16 H3          3.3018    1.9873   -0.0192 H         1 <0>         0.1271
     17 H4          1.2177   -1.7605   -0.0194 H         1 <0>         0.1361
     18 H5         -0.9265   -0.5556    0.0083 H         1 <0>         0.1324
     19 H6          7.2721   -1.8094   -0.0745 H         1 <0>         0.2032
     20 H7          6.3359   -4.1697    0.4229 H         1 <0>         0.1174
     21 H8          4.5784   -4.4509    0.4326 H         1 <0>         0.1166
@<TRIPOS>BOND
     1    1    6 ar
     2    1    2 ar
     3    1   14 1
     4    2    3 ar
     5    2   15 1
     6    3    4 ar
     7    3   16 1
     8    4    5 ar
     9    4    7 1
    10    5    6 ar
    11    5   17 1
    12    6   18 1
    13    7   11 1
    14    7    8 2
    15    8    9 1
    16    9   10 2
    17    9   12 1
    18   10   11 1
    19   10   19 1
    20   12   13 1
    21   12   20 1
    22   12   21 1
@<TRIPOS>MOLECULE
ZINC21969016
   22    23     0     0     0
SMALL
USER_CHARGES
[2-(3-thienyl)thiazol-4-yl]methylhydrazine
@<TRIPOS>ATOM
      1 C1         -1.0762    1.9089    0.0166 C.2       1 <0>        -0.1457
      2 C2         -0.0126    1.0758    0.0080 C.2       1 <0>        -0.1634
      3 S1          1.3619    2.2140    0.0009 S.3       1 <0>         0.0783
      4 C3          0.4344    3.7389    0.0169 C.2       1 <0>        -0.1167
      5 C4         -0.8576    3.2851    0.0265 C.2       1 <0>        -0.0574
      6 C5         -1.9924    4.2317    0.0420 C.2       1 <0>         0.1744
      7 N1         -1.9823    5.5577    0.0485 N.2       1 <0>        -0.4998
      8 C6         -3.1011    6.2472    0.0627 C.2       1 <0>         0.0531
      9 C7         -4.2948    5.6006    0.0709 C.2       1 <0>        -0.1716
     10 S2         -3.7489    3.8977    0.0493 S.3       1 <0>         0.0166
     11 C8         -3.0589    7.7536    0.0703 C.3       1 <0>         0.1308
     12 N2         -2.9111    8.2324    1.4512 N.3       1 <0>        -0.5151
     13 N3         -2.8666    9.6850    1.4971 N.3       1 <0>        -0.6457
     14 H1         -2.0814    1.5139    0.0189 H         1 <0>         0.1396
     15 H2          0.0021   -0.0041    0.0020 H         1 <0>         0.1949
     16 H3          0.7979    4.7559    0.0190 H         1 <0>         0.1957
     17 H4         -5.2969    6.0033    0.0830 H         1 <0>         0.2023
     18 H5         -2.2053    8.0995   -0.5311 H         1 <0>         0.0504
     19 H6         -3.9924    8.1487   -0.3569 H         1 <0>         0.1005
     20 H7         -2.0942    7.8317    1.8873 H         1 <0>         0.3171
     21 H8         -2.7558   10.0156    2.5404 H         1 <0>         0.3566
     22 H9         -2.0116   10.0445    0.9057 H         1 <0>         0.3050
@<TRIPOS>BOND
     1    1    5 1
     2    1    2 2
     3    1   14 1
     4    2    3 1
     5    2   15 1
     6    3    4 1
     7    4    5 2
     8    4   16 1
     9    5    6 1
    10    6   10 1
    11    6    7 2
    12    7    8 1
    13    8    9 2
    14    8   11 1
    15    9   10 1
    16    9   17 1
    17   11   12 1
    18   11   18 1
    19   11   19 1
    20   12   13 1
    21   12   20 1
    22   13   21 1
    23   13   22 1
@<TRIPOS>MOLECULE
ZINC21969016
   23    24     0     0     0
SMALL
USER_CHARGES
[2-(3-thienyl)thiazol-4-yl]methylhydrazine
@<TRIPOS>ATOM
      1 C1         -1.0762    1.9089    0.0166 C.2       1 <0>        -0.1515
      2 C2         -0.0126    1.0758    0.0080 C.2       1 <0>        -0.1566
      3 S1          1.3619    2.2140    0.0009 S.3       1 <0>         0.1039
      4 C3          0.4344    3.7389    0.0169 C.2       1 <0>        -0.1141
      5 C4         -0.8576    3.2851    0.0265 C.2       1 <0>        -0.0717
      6 C5         -1.9924    4.2317    0.0420 C.2       1 <0>         0.1992
      7 N1         -1.9823    5.5577    0.0485 N.2       1 <0>        -0.4993
      8 C6         -3.1011    6.2472    0.0627 C.2       1 <0>         0.0479
      9 C7         -4.2948    5.6006    0.0709 C.2       1 <0>        -0.2031
     10 S2         -3.7489    3.8977    0.0493 S.3       1 <0>         0.0655
     11 C8         -3.0589    7.7536    0.0703 C.3       1 <0>         0.0839
     12 N2         -2.9111    8.2324    1.4512 N.3       1 <0>        -0.4705
     13 N3         -2.8666    9.6850    1.4971 N.4       1 <0>        -0.5532
     14 H1         -2.0814    1.5139    0.0189 H         1 <0>         0.1401
     15 H2          0.0021   -0.0041    0.0020 H         1 <0>         0.1984
     16 H3          0.7979    4.7559    0.0190 H         1 <0>         0.1968
     17 H4         -5.2969    6.0033    0.0830 H         1 <0>         0.2022
     18 H5         -2.2053    8.0995   -0.5311 H         1 <0>         0.1207
     19 H6         -3.9924    8.1487   -0.3569 H         1 <0>         0.0880
     20 H7         -3.7648    7.8865    2.0525 H         1 <0>         0.3995
     21 H8         -2.7558   10.0156    2.5404 H         1 <0>         0.4744
     22 H9         -3.7988   10.0937    1.0799 H         1 <0>         0.4284
     23 H10        -2.0116   10.0445    0.9057 H         1 <0>         0.4711
@<TRIPOS>BOND
     1    1    5 1
     2    1    2 2
     3    1   14 1
     4    2    3 1
     5    2   15 1
     6    3    4 1
     7    4    5 2
     8    4   16 1
     9    5    6 1
    10    6   10 1
    11    6    7 2
    12    7    8 1
    13    8    9 2
    14    8   11 1
    15    9   10 1
    16    9   17 1
    17   11   12 1
    18   11   18 1
    19   11   19 1
    20   12   13 1
    21   12   20 1
    22   13   21 1
    23   13   22 1
    24   13   23 1
@<TRIPOS>MOLECULE
ZINC21969016
   23    24     0     0     0
SMALL
USER_CHARGES
[2-(3-thienyl)thiazol-4-yl]methylhydrazine
@<TRIPOS>ATOM
      1 C1         -1.0762    1.9089    0.0166 C.2       1 <0>        -0.1533
      2 C2         -0.0126    1.0758    0.0080 C.2       1 <0>        -0.1540
      3 S1          1.3619    2.2140    0.0009 S.3       1 <0>         0.1140
      4 C3          0.4344    3.7389    0.0169 C.2       1 <0>        -0.1163
      5 C4         -0.8576    3.2851    0.0265 C.2       1 <0>        -0.0753
      6 C5         -1.9924    4.2317    0.0420 C.2       1 <0>         0.2034
      7 N1         -1.9823    5.5577    0.0485 N.2       1 <0>        -0.5150
      8 C6         -3.1011    6.2472    0.0627 C.2       1 <0>        -0.0064
      9 C7         -4.2948    5.6006    0.0709 C.2       1 <0>        -0.1812
     10 S2         -3.7489    3.8977    0.0493 S.3       1 <0>         0.0918
     11 C8         -3.0589    7.7536    0.0703 C.3       1 <0>         0.0957
     12 N2         -2.9111    8.2324    1.4512 N.4       1 <0>        -0.4035
     13 N3         -2.8666    9.6850    1.4971 N.3       1 <0>        -0.6415
     14 H1         -2.0814    1.5139    0.0189 H         1 <0>         0.1408
     15 H2          0.0021   -0.0041    0.0020 H         1 <0>         0.1998
     16 H3          0.7979    4.7559    0.0190 H         1 <0>         0.1966
     17 H4         -5.2969    6.0033    0.0830 H         1 <0>         0.2105
     18 H5         -2.2053    8.0995   -0.5311 H         1 <0>         0.1385
     19 H6         -3.9924    8.1487   -0.3569 H         1 <0>         0.1491
     20 H7         -3.7648    7.8865    2.0525 H         1 <0>         0.4635
     21 H8         -2.7558   10.0156    2.5404 H         1 <0>         0.4076
     22 H9         -2.0116   10.0445    0.9057 H         1 <0>         0.4056
     23 H10        -1.9776    7.8373    1.8784 H         1 <0>         0.4295
@<TRIPOS>BOND
     1    1    5 1
     2    1    2 2
     3    1   14 1
     4    2    3 1
     5    2   15 1
     6    3    4 1
     7    4    5 2
     8    4   16 1
     9    5    6 1
    10    6   10 1
    11    6    7 2
    12    7    8 1
    13    8    9 2
    14    8   11 1
    15    9   10 1
    16    9   17 1
    17   11   12 1
    18   11   18 1
    19   11   19 1
    20   12   13 1
    21   12   20 1
    22   12   23 1
    23   13   21 1
    24   13   22 1
@<TRIPOS>MOLECULE
ZINC62938235
   29    31     0     0     0
SMALL
USER_CHARGES

@<TRIPOS>ATOM
      1 C1         -0.0167    1.3792    0.0096 C.ar      1 <0>        -0.1136
      2 C2          1.1661    2.0896    0.0021 C.ar      1 <0>        -0.0601
      3 C3          2.3851    1.4109   -0.0131 C.ar      1 <0>        -0.0418
      4 C4          2.3996    0.0135   -0.0207 C.ar      1 <0>         0.1572
      5 C5          1.2064   -0.6861   -0.0131 C.ar      1 <0>        -0.0797
      6 C6          0.0021   -0.0041    0.0020 C.ar      1 <0>        -0.0614
      7 Cl1         1.2194   -2.4220   -0.0224 Cl        1 <0>        -0.0355
      8 F1          3.5752   -0.6520   -0.0359 F         1 <0>        -0.1014
      9 C7          3.6557    2.1666   -0.0217 C.2       1 <0>         0.1487
     10 N1          4.8987    1.7138   -0.0414 N.2       1 <0>        -0.4735
     11 C8          5.9298    2.5389   -0.0463 C.2       1 <0>         0.0926
     12 C9          5.7075    3.8927   -0.0306 C.2       1 <0>        -0.1814
     13 S1          3.9199    3.9345   -0.0160 S.3       1 <0>         0.0487
     14 C10         7.3127    2.0080   -0.0681 C.ar      1 <0>         0.0034
     15 C11         8.3972    2.8868   -0.0668 C.ar      1 <0>        -0.1062
     16 C12         9.6776    2.3967   -0.0864 C.ar      1 <0>        -0.0682
     17 C13         9.8967    1.0160   -0.1078 C.ar      1 <0>        -0.0228
     18 C14         8.8096    0.1367   -0.1090 C.ar      1 <0>        -0.0695
     19 C15         7.5302    0.6293   -0.0840 C.ar      1 <0>        -0.0858
     20 C16        11.2335    0.5028   -0.1288 C.1       1 <0>         0.2502
     21 N2         12.2939    0.0957   -0.1454 N.1       1 <0>        -0.4108
     22 H1         -0.9601    1.9047    0.0260 H         1 <0>         0.1511
     23 H2          1.1484    3.1695    0.0077 H         1 <0>         0.1444
     24 H3         -0.9272   -0.5543    0.0079 H         1 <0>         0.1515
     25 H4          6.4161    4.7077   -0.0316 H         1 <0>         0.2071
     26 H5          8.2277    3.9533   -0.0507 H         1 <0>         0.1361
     27 H6         10.5165    3.0769   -0.0858 H         1 <0>         0.1381
     28 H7          8.9776   -0.9300   -0.1258 H         1 <0>         0.1372
     29 H8          6.6904   -0.0497   -0.0808 H         1 <0>         0.1454
@<TRIPOS>BOND
     1    1    6 ar
     2    1    2 ar
     3    1   22 1
     4    2    3 ar
     5    2   23 1
     6    3    4 ar
     7    3    9 1
     8    4    5 ar
     9    4    8 1
    10    5    6 ar
    11    5    7 1
    12    6   24 1
    13    9   13 1
    14    9   10 2
    15   10   11 1
    16   11   12 2
    17   11   14 1
    18   12   13 1
    19   12   25 1
    20   14   19 ar
    21   14   15 ar
    22   15   16 ar
    23   15   26 1
    24   16   17 ar
    25   16   27 1
    26   17   18 ar
    27   17   20 1
    28   18   19 ar
    29   18   28 1
    30   19   29 1
    31   20   21 3
@<TRIPOS>MOLECULE
ZINC36827735
   37    39     0     0     0
SMALL
USER_CHARGES

@<TRIPOS>ATOM
      1 C1         -0.0169    1.3914    0.0097 C.ar      1 <0>        -0.0533
      2 C2          1.1695    2.0947    0.0021 C.ar      1 <0>        -0.1500
      3 C3          2.3789    1.4182   -0.0135 C.ar      1 <0>         0.1392
      4 C4          2.4033    0.0326   -0.0212 C.ar      1 <0>        -0.1555
      5 C5          1.2228   -0.6804   -0.0137 C.ar      1 <0>        -0.0331
      6 C6          0.0021   -0.0041    0.0020 C.ar      1 <0>        -0.0548
      7 C7         -1.2666   -0.7632    0.0105 C.2       1 <0>         0.1839
      8 N1         -1.4625   -2.0744    0.0109 N.2       1 <0>        -0.5077
      9 C8         -2.6728   -2.5824    0.0199 C.2       1 <0>        -0.0082
     10 C9         -3.7535   -1.7580    0.0291 C.2       1 <0>        -0.1818
     11 S1         -2.9497   -0.1603    0.0311 S.3       1 <0>         0.0968
     12 C10        -2.8638   -4.0772    0.0196 C.3       1 <0>         0.0774
     13 N2         -2.8166   -4.5766   -1.3611 N.4       1 <0>        -0.5071
     14 C11        -3.0028   -6.0337   -1.3614 C.3       1 <0>         0.0011
     15 C12        -2.9536   -6.5538   -2.7995 C.3       1 <0>        -0.1485
     16 C13        -4.3168   -6.5281   -3.5109 C.3       1 <0>        -0.1480
     17 C14        -3.9367   -7.8884   -4.1191 C.3       1 <0>        -0.1428
     18 C15        -3.0171   -8.0869   -2.9026 C.3       1 <0>        -0.1257
     19 F1          3.5381    2.1119   -0.0217 F         1 <0>        -0.1240
     20 H1         -0.9588    1.9196    0.0260 H         1 <0>         0.1394
     21 H2          1.1559    3.1746    0.0081 H         1 <0>         0.1519
     22 H3          3.3485   -0.4898   -0.0334 H         1 <0>         0.1502
     23 H4          1.2429   -1.7602   -0.0204 H         1 <0>         0.1453
     24 H5         -4.8058   -2.0005    0.0368 H         1 <0>         0.2106
     25 H6         -2.0705   -4.5450    0.6025 H         1 <0>         0.1454
     26 H7         -3.8305   -4.3200    0.4609 H         1 <0>         0.1456
     27 H8         -3.5510   -4.1435   -1.9007 H         1 <0>         0.4262
     28 H9         -2.2095   -6.5016   -0.7785 H         1 <0>         0.1342
     29 H10        -3.9695   -6.2766   -0.9201 H         1 <0>         0.1335
     30 H11        -2.1468   -6.1100   -3.3827 H         1 <0>         0.1125
     31 H12        -5.1660   -6.5765   -2.8292 H         1 <0>         0.0916
     32 H13        -4.4095   -5.7307   -4.2482 H         1 <0>         0.0785
     33 H14        -4.7654   -8.5953   -4.1599 H         1 <0>         0.0811
     34 H15        -3.3996   -7.8094   -5.0642 H         1 <0>         0.0895
     35 H16        -2.0606   -8.5479   -3.1489 H         1 <0>         0.0831
     36 H17        -3.5110   -8.5614   -2.0547 H         1 <0>         0.0929
     37 H18        -1.9218   -4.3518   -1.7696 H         1 <0>         0.4308
@<TRIPOS>BOND
     1    1    6 ar
     2    1    2 ar
     3    1   20 1
     4    2    3 ar
     5    2   21 1
     6    3    4 ar
     7    3   19 1
     8    4    5 ar
     9    4   22 1
    10    5    6 ar
    11    5   23 1
    12    6    7 1
    13    7   11 1
    14    7    8 2
    15    8    9 1
    16    9   10 2
    17    9   12 1
    18   10   11 1
    19   10   24 1
    20   12   13 1
    21   12   25 1
    22   12   26 1
    23   13   14 1
    24   13   27 1
    25   13   37 1
    26   14   15 1
    27   14   28 1
    28   14   29 1
    29   15   18 1
    30   15   16 1
    31   15   30 1
    32   16   17 1
    33   16   31 1
    34   16   32 1
    35   17   18 1
    36   17   33 1
    37   17   34 1
    38   18   35 1
    39   18   36 1
@<TRIPOS>MOLECULE
ZINC88832156
   34    36     0     0     0
SMALL
USER_CHARGES

@<TRIPOS>ATOM
      1 C1         -0.0166    1.3752    0.0096 C.ar      1 <0>        -0.1091
      2 C2          1.1704    2.0863    0.0021 C.ar      1 <0>        -0.0766
      3 C3          2.3826    1.4201   -0.0135 C.ar      1 <0>        -0.1674
      4 C4          2.4151    0.0407   -0.0216 C.ar      1 <0>        -0.0720
      5 C5          1.2218   -0.6823   -0.0136 C.ar      1 <0>         0.0008
      6 C6          0.0021   -0.0041    0.0020 C.ar      1 <0>        -0.0387
      7 C7          1.2492   -2.1607   -0.0228 C.2       1 <0>         0.1310
      8 N1          0.2401   -3.0171   -0.0229 N.2       1 <0>        -0.4758
      9 C8          0.4467   -4.3204   -0.0323 C.2       1 <0>         0.1033
     10 C9          1.7316   -4.7979   -0.0421 C.2       1 <0>        -0.1700
     11 S1          2.6540   -3.2659   -0.0445 S.3       1 <0>         0.0388
     12 C10        -0.7012   -5.2603   -0.0318 C.ar      1 <0>        -0.0347
     13 C11        -0.4780   -6.6361   -0.0355 C.ar      1 <0>        -0.0691
     14 C12        -1.5481   -7.5071   -0.0350 C.ar      1 <0>        -0.1379
     15 C13        -2.8436   -7.0164   -0.0309 C.ar      1 <0>         0.1237
     16 C14        -3.0709   -5.6489   -0.0273 C.ar      1 <0>        -0.0775
     17 C15        -2.0055   -4.7701   -0.0219 C.ar      1 <0>        -0.0488
     18 Cl1        -4.6968   -5.0403   -0.0227 Cl        1 <0>        -0.0379
     19 F1         -3.8883   -7.8729   -0.0309 F         1 <0>        -0.1190
     20 C16         3.6705    2.2026   -0.0221 C.3       1 <0>         0.0484
     21 N2          4.1027    2.4495    1.3600 N.4       1 <0>        -0.6378
     22 H1         -0.9597    1.9012    0.0259 H         1 <0>         0.1464
     23 H2          1.1504    3.1661    0.0080 H         1 <0>         0.1394
     24 H3          3.3622   -0.4783   -0.0345 H         1 <0>         0.1365
     25 H4         -0.9251   -0.5579    0.0079 H         1 <0>         0.1485
     26 H5          2.0882   -5.8173   -0.0501 H         1 <0>         0.2100
     27 H6          0.5315   -7.0200   -0.0390 H         1 <0>         0.1431
     28 H7         -1.3755   -8.5732   -0.0382 H         1 <0>         0.1543
     29 H8         -2.1830   -3.7048   -0.0145 H         1 <0>         0.1518
     30 H9          4.4380    1.6334   -0.5466 H         1 <0>         0.1420
     31 H10         3.5139    3.1546   -0.5293 H         1 <0>         0.1444
     32 H11         4.9650    2.9734    1.3543 H         1 <0>         0.4394
     33 H12         3.3923    2.9764    1.8456 H         1 <0>         0.4356
     34 H13         4.2477    1.5682    1.8296 H         1 <0>         0.4350
@<TRIPOS>BOND
     1    1    6 ar
     2    1    2 ar
     3    1   22 1
     4    2    3 ar
     5    2   23 1
     6    3    4 ar
     7    3   20 1
     8    4    5 ar
     9    4   24 1
    10    5    6 ar
    11    5    7 1
    12    6   25 1
    13    7   11 1
    14    7    8 2
    15    8    9 1
    16    9   10 2
    17    9   12 1
    18   10   11 1
    19   10   26 1
    20   12   17 ar
    21   12   13 ar
    22   13   14 ar
    23   13   27 1
    24   14   15 ar
    25   14   28 1
    26   15   16 ar
    27   15   19 1
    28   16   17 ar
    29   16   18 1
    30   17   29 1
    31   20   21 1
    32   20   30 1
    33   20   31 1
    34   21   32 1
    35   21   33 1
    36   21   34 1
@<TRIPOS>MOLECULE
ZINC35163490
   38    39     0     0     0
SMALL
USER_CHARGES

@<TRIPOS>ATOM
      1 C1         -0.0169    1.3914    0.0097 C.ar      1 <0>        -0.0536
      2 C2          1.1695    2.0947    0.0021 C.ar      1 <0>        -0.1503
      3 C3          2.3789    1.4182   -0.0135 C.ar      1 <0>         0.1388
      4 C4          2.4033    0.0326   -0.0212 C.ar      1 <0>        -0.1554
      5 C5          1.2228   -0.6804   -0.0137 C.ar      1 <0>        -0.0327
      6 C6          0.0021   -0.0041    0.0020 C.ar      1 <0>        -0.0545
      7 C7         -1.2666   -0.7632    0.0105 C.2       1 <0>         0.1842
      8 N1         -1.4625   -2.0744    0.0109 N.2       1 <0>        -0.5061
      9 C8         -2.6728   -2.5824    0.0199 C.2       1 <0>        -0.0069
     10 C9         -3.7535   -1.7580    0.0291 C.2       1 <0>        -0.1824
     11 S1         -2.9497   -0.1603    0.0311 S.3       1 <0>         0.0948
     12 C10        -2.8638   -4.0772    0.0196 C.3       1 <0>         0.0772
     13 N2         -2.8166   -4.5766   -1.3611 N.4       1 <0>        -0.5070
     14 C11        -3.0028   -6.0337   -1.3614 C.3       1 <0>        -0.0001
     15 C12        -2.9536   -6.5538   -2.7995 C.3       1 <0>         0.0270
     16 O1         -1.6479   -6.3395   -3.3391 O.3       1 <0>        -0.3926
     17 C13        -1.4940   -6.7923   -4.6857 C.3       1 <0>         0.0649
     18 C14        -0.0655   -6.5135   -5.1574 C.3       1 <0>         0.0740
     19 O2          0.8510   -7.2952   -4.3887 O.3       1 <0>        -0.5696
     20 F1          3.5381    2.1119   -0.0217 F         1 <0>        -0.1243
     21 H1         -0.9588    1.9196    0.0260 H         1 <0>         0.1393
     22 H2          1.1559    3.1746    0.0081 H         1 <0>         0.1517
     23 H3          3.3485   -0.4898   -0.0334 H         1 <0>         0.1502
     24 H4          1.2429   -1.7602   -0.0204 H         1 <0>         0.1459
     25 H5         -4.8058   -2.0005    0.0368 H         1 <0>         0.2107
     26 H6         -2.0705   -4.5450    0.6025 H         1 <0>         0.1462
     27 H7         -3.8305   -4.3200    0.4609 H         1 <0>         0.1464
     28 H8         -3.5510   -4.1435   -1.9007 H         1 <0>         0.4240
     29 H9         -2.2095   -6.5016   -0.7785 H         1 <0>         0.1426
     30 H10        -3.9695   -6.2766   -0.9201 H         1 <0>         0.1473
     31 H11        -3.1798   -7.6201   -2.8082 H         1 <0>         0.1000
     32 H12        -3.6884   -6.0216   -3.4037 H         1 <0>         0.0741
     33 H13        -1.6899   -7.8634   -4.7335 H         1 <0>         0.0700
     34 H14        -2.1985   -6.2650   -5.3291 H         1 <0>         0.0730
     35 H15         0.0271   -6.7769   -6.2111 H         1 <0>         0.0710
     36 H16         0.1605   -5.4553   -5.0262 H         1 <0>         0.0551
     37 H17         1.7778   -7.1688   -4.6340 H         1 <0>         0.3888
     38 H18        -1.9218   -4.3518   -1.7696 H         1 <0>         0.4381
@<TRIPOS>BOND
     1    1    6 ar
     2    1    2 ar
     3    1   21 1
     4    2    3 ar
     5    2   22 1
     6    3    4 ar
     7    3   20 1
     8    4    5 ar
     9    4   23 1
    10    5    6 ar
    11    5   24 1
    12    6    7 1
    13    7   11 1
    14    7    8 2
    15    8    9 1
    16    9   10 2
    17    9   12 1
    18   10   11 1
    19   10   25 1
    20   12   13 1
    21   12   26 1
    22   12   27 1
    23   13   14 1
    24   13   28 1
    25   13   38 1
    26   14   15 1
    27   14   29 1
    28   14   30 1
    29   15   16 1
    30   15   31 1
    31   15   32 1
    32   16   17 1
    33   17   18 1
    34   17   33 1
    35   17   34 1
    36   18   19 1
    37   18   35 1
    38   18   36 1
    39   19   37 1
@<TRIPOS>MOLECULE
ZINC40999760
   34    35     0     0     0
SMALL
USER_CHARGES

@<TRIPOS>ATOM
      1 C1         -0.2924    1.2728   -0.1840 C.3       1 <0>        -0.1837
      2 C2         -0.0341   -0.2288   -0.0449 C.3       1 <0>         0.0761
      3 C3          0.7809   -0.7192   -1.2433 C.3       1 <0>        -0.1520
      4 O1          0.6932   -0.4774    1.1597 O.3       1 <0>        -0.3058
      5 C4         -0.0306   -0.5997    2.3035 C.ar      1 <0>         0.1424
      6 C5         -1.4009   -0.3758    2.2848 C.ar      1 <0>        -0.1778
      7 C6         -2.1421   -0.4983    3.4452 C.ar      1 <0>        -0.0776
      8 C7         -1.5247   -0.8445    4.6301 C.ar      1 <0>        -0.1028
      9 C8         -0.1482   -1.0719    4.6583 C.ar      1 <0>        -0.0026
     10 C9          0.5977   -0.9530    3.4856 C.ar      1 <0>        -0.1242
     11 C10         0.5167   -1.4426    5.9261 C.2       1 <0>         0.1850
     12 N1         -0.0068   -1.6146    7.1317 N.2       1 <0>        -0.5062
     13 C11         0.7403   -1.9473    8.1579 C.2       1 <0>        -0.0142
     14 C12         2.0786   -2.1215    7.9934 C.2       1 <0>        -0.1841
     15 S1          2.2422   -1.7870    6.2441 S.3       1 <0>         0.1024
     16 C13         0.1160   -2.1353    9.5166 C.3       1 <0>         0.0798
     17 N2          0.0130   -0.8351   10.1923 N.4       1 <0>        -0.6350
     18 H1          0.6590    1.8035   -0.2179 H         1 <0>         0.0710
     19 H2         -0.8472    1.4625   -1.1029 H         1 <0>         0.0782
     20 H3         -0.8731    1.6222    0.6697 H         1 <0>         0.0621
     21 H4         -0.9856   -0.7595   -0.0110 H         1 <0>         0.0769
     22 H5          1.7324   -0.1885   -1.2772 H         1 <0>         0.0700
     23 H6          0.9649   -1.7890   -1.1442 H         1 <0>         0.0671
     24 H7          0.2261   -0.5296   -2.1621 H         1 <0>         0.0825
     25 H8         -1.8893   -0.1047    1.3605 H         1 <0>         0.1416
     26 H9         -3.2074   -0.3223    3.4247 H         1 <0>         0.1395
     27 H10        -2.1066   -0.9391    5.5350 H         1 <0>         0.1363
     28 H11         1.6626   -1.1321    3.5004 H         1 <0>         0.1362
     29 H12         2.8331   -2.3916    8.7174 H         1 <0>         0.2109
     30 H13        -0.8790   -2.5655    9.4028 H         1 <0>         0.1473
     31 H14         0.7360   -2.8059   10.1116 H         1 <0>         0.1483
     32 H15         0.9341   -0.4368   10.2976 H         1 <0>         0.4337
     33 H16        -0.5609   -0.2143    9.6415 H         1 <0>         0.4384
     34 H17        -0.4049   -0.9610   11.1020 H         1 <0>         0.4402
@<TRIPOS>BOND
     1    1    2 1
     2    1   18 1
     3    1   19 1
     4    1   20 1
     5    2    3 1
     6    2    4 1
     7    2   21 1
     8    3   22 1
     9    3   23 1
    10    3   24 1
    11    4    5 1
    12    5   10 ar
    13    5    6 ar
    14    6    7 ar
    15    6   25 1
    16    7    8 ar
    17    7   26 1
    18    8    9 ar
    19    8   27 1
    20    9   10 ar
    21    9   11 1
    22   10   28 1
    23   11   15 1
    24   11   12 2
    25   12   13 1
    26   13   14 2
    27   13   16 1
    28   14   15 1
    29   14   29 1
    30   16   17 1
    31   16   30 1
    32   16   31 1
    33   17   32 1
    34   17   33 1
    35   17   34 1
@<TRIPOS>MOLECULE
ZINC15832399
   35    37     0     0     0
SMALL
USER_CHARGES
3-chloro-N-[(2-phenylthiazol-4-yl)methyl]benzamide
@<TRIPOS>ATOM
      1 C1          4.1041   -3.7526   -0.0560 C.ar      1 <0>        -0.0966
      2 C2          2.7230   -3.8329   -0.0437 C.ar      1 <0>        -0.1180
      3 C3          1.9622   -2.6820   -0.0307 C.ar      1 <0>        -0.0904
      4 C4          2.5887   -1.4351   -0.0300 C.ar      1 <0>        -0.0231
      5 C5          3.9821   -1.3610   -0.0482 C.ar      1 <0>        -0.0682
      6 C6          4.7314   -2.5194   -0.0553 C.ar      1 <0>        -0.1204
      7 C7          1.7795   -0.1975   -0.0160 C.2       1 <0>         0.1622
      8 N1          2.1764    1.0672   -0.0130 N.2       1 <0>        -0.4883
      9 C8          1.3105    2.0531    0.0006 C.2       1 <0>         0.0362
     10 C9         -0.0222    1.7842    0.0119 C.2       1 <0>        -0.1798
     11 S1          0.0021   -0.0041    0.0020 S.3       1 <0>         0.0266
     12 C10         1.7924    3.4810    0.0031 C.3       1 <0>         0.1936
     13 N2          2.0757    3.8983    1.3786 N.am      1 <0>        -0.7187
     14 C11         2.5221    5.1457    1.6259 C.2       1 <0>         0.5623
     15 O1          2.6897    5.9245    0.7078 O.2       1 <0>        -0.5279
     16 C12         2.8079    5.5669    3.0140 C.ar      1 <0>        -0.1224
     17 C13         2.6111    4.6767    4.0712 C.ar      1 <0>        -0.0826
     18 C14         2.8841    5.0737    5.3637 C.ar      1 <0>        -0.1121
     19 C15         3.3427    6.3546    5.6153 C.ar      1 <0>        -0.0835
     20 C16         3.5353    7.2446    4.5724 C.ar      1 <0>        -0.0431
     21 C17         3.2702    6.8577    3.2734 C.ar      1 <0>        -0.0507
     22 Cl1         4.1105    8.8498    4.8981 Cl        1 <0>        -0.0571
     23 H1          4.6952   -4.6564   -0.0658 H         1 <0>         0.1300
     24 H2          2.2394   -4.7985   -0.0447 H         1 <0>         0.1326
     25 H3          0.8842   -2.7460   -0.0208 H         1 <0>         0.1271
     26 H4          4.4729   -0.3990   -0.0525 H         1 <0>         0.1360
     27 H5          5.8099   -2.4635   -0.0649 H         1 <0>         0.1324
     28 H6         -0.8626    2.4625    0.0198 H         1 <0>         0.2037
     29 H7          2.7006    3.5590   -0.5946 H         1 <0>         0.0885
     30 H8          1.0221    4.1252   -0.4207 H         1 <0>         0.0894
     31 H9          1.9420    3.2769    2.1113 H         1 <0>         0.4014
     32 H10         2.2492    3.6778    3.8770 H         1 <0>         0.1309
     33 H11         2.7356    4.3844    6.1817 H         1 <0>         0.1409
     34 H12         3.5510    6.6617    6.6296 H         1 <0>         0.1406
     35 H13         3.4207    7.5524    2.4603 H         1 <0>         0.1486
@<TRIPOS>BOND
     1    1    6 ar
     2    1    2 ar
     3    1   23 1
     4    2    3 ar
     5    2   24 1
     6    3    4 ar
     7    3   25 1
     8    4    5 ar
     9    4    7 1
    10    5    6 ar
    11    5   26 1
    12    6   27 1
    13    7   11 1
    14    7    8 2
    15    8    9 1
    16    9   10 2
    17    9   12 1
    18   10   11 1
    19   10   28 1
    20   12   13 1
    21   12   29 1
    22   12   30 1
    23   13   14 am
    24   13   31 1
    25   14   15 2
    26   14   16 1
    27   16   21 ar
    28   16   17 ar
    29   17   18 ar
    30   17   32 1
    31   18   19 ar
    32   18   33 1
    33   19   20 ar
    34   19   34 1
    35   20   21 ar
    36   20   22 1
    37   21   35 1
@<TRIPOS>MOLECULE
ZINC50308763
   23    24     0     0     0
SMALL
USER_CHARGES

@<TRIPOS>ATOM
      1 C1         -0.0184    1.5028    0.0103 C.3       1 <0>        -0.0695
      2 C2          0.0021   -0.0041    0.0020 C.2       1 <0>        -0.0542
      3 C3          0.0053   -0.6855   -1.1841 C.2       1 <0>         0.1303
      4 S1          0.0320   -2.3735   -0.5937 S.3       1 <0>         0.0069
      5 C4          0.0359   -1.9945    1.1535 C.2       1 <0>         0.0997
      6 N1          0.0223   -0.6703    1.1330 N.2       1 <0>        -0.4435
      7 C5          0.0548   -2.9129    2.3108 C.ar      1 <0>         0.0032
      8 C6          0.0482   -2.4032    3.6105 C.ar      1 <0>        -0.0810
      9 C7          0.0660   -3.2663    4.6866 C.ar      1 <0>        -0.1172
     10 C8          0.0902   -4.6342    4.4799 C.ar      1 <0>        -0.1104
     11 C9          0.0968   -5.1460    3.1944 C.ar      1 <0>        -0.1152
     12 C10         0.0734   -4.2943    2.1095 C.ar      1 <0>        -0.1033
     13 N2         -0.0087   -0.1991   -2.4907 N.pl3     1 <0>        -0.8125
     14 H1          1.0042    1.8801    0.0026 H         1 <0>         0.0657
     15 H2         -0.5455    1.8639   -0.8728 H         1 <0>         0.0611
     16 H3         -0.5286    1.8543    0.9071 H         1 <0>         0.0737
     17 H4          0.0296   -1.3357    3.7732 H         1 <0>         0.1337
     18 H5          0.0613   -2.8734    5.6925 H         1 <0>         0.1292
     19 H6          0.1044   -5.3055    5.3258 H         1 <0>         0.1264
     20 H7          0.1158   -6.2147    3.0401 H         1 <0>         0.1289
     21 H8          0.0741   -4.6951    1.1066 H         1 <0>         0.1234
     22 H9         -0.0232    0.7573   -2.6520 H         1 <0>         0.4134
     23 H10        -0.0040   -0.8171   -3.2383 H         1 <0>         0.4113
@<TRIPOS>BOND
     1    1    2 1
     2    1   14 1
     3    1   15 1
     4    1   16 1
     5    2    6 1
     6    2    3 2
     7    3    4 1
     8    3   13 1
     9    4    5 1
    10    5    6 2
    11    5    7 1
    12    7   12 ar
    13    7    8 ar
    14    8    9 ar
    15    8   17 1
    16    9   10 ar
    17    9   18 1
    18   10   11 ar
    19   10   19 1
    20   11   12 ar
    21   11   20 1
    22   12   21 1
    23   13   22 1
    24   13   23 1
@<TRIPOS>MOLECULE
ZINC11632135
   26    27     0     0     0
SMALL
USER_CHARGES
4-(4-ethylthiazol-2-yl)aniline
@<TRIPOS>ATOM
      1 C1          0.1892    4.0112   -1.1604 C.3       1 <0>        -0.1436
      2 C2          1.0452    3.5242    0.0105 C.3       1 <0>        -0.0535
      3 C3          1.0972    2.0181    0.0024 C.2       1 <0>         0.0666
      4 C4          2.2961    1.3787   -0.0125 C.2       1 <0>        -0.2129
      5 S1          1.7604   -0.3277   -0.0165 S.3       1 <0>        -0.0134
      6 C5          0.0021   -0.0041    0.0020 C.2       1 <0>         0.1819
      7 N1         -0.0159    1.3218    0.0093 N.2       1 <0>        -0.5049
      8 C6         -1.1271   -0.9575    0.0081 C.ar      1 <0>        -0.0853
      9 C7         -2.4411   -0.4856    0.0295 C.ar      1 <0>        -0.0151
     10 C8         -3.4918   -1.3769    0.0302 C.ar      1 <0>        -0.2020
     11 C9         -3.2445   -2.7454    0.0200 C.ar      1 <0>         0.2396
     12 C10        -1.9369   -3.2185    0.0045 C.ar      1 <0>        -0.1987
     13 C11        -0.8821   -2.3321   -0.0017 C.ar      1 <0>        -0.0366
     14 N2         -4.3104   -3.6453    0.0257 N.pl3     1 <0>        -0.8699
     15 H1          0.6267    3.6678   -2.0978 H         1 <0>         0.0510
     16 H2         -0.8205    3.6123   -1.0629 H         1 <0>         0.0636
     17 H3          0.1516    5.1005   -1.1545 H         1 <0>         0.0579
     18 H4          0.6077    3.8676    0.9479 H         1 <0>         0.0782
     19 H5          2.0549    3.9231   -0.0869 H         1 <0>         0.0773
     20 H6          3.2957    1.7876   -0.0192 H         1 <0>         0.1961
     21 H7         -2.6336    0.5770    0.0416 H         1 <0>         0.1355
     22 H8         -4.5083   -1.0125    0.0430 H         1 <0>         0.1291
     23 H9         -1.7480   -4.2818   -0.0031 H         1 <0>         0.1294
     24 H10         0.1332   -2.7001   -0.0138 H         1 <0>         0.1267
     25 H11        -4.1390   -4.6000    0.0189 H         1 <0>         0.4014
     26 H12        -5.2228   -3.3164    0.0366 H         1 <0>         0.4018
@<TRIPOS>BOND
     1    1    2 1
     2    1   15 1
     3    1   16 1
     4    1   17 1
     5    2    3 1
     6    2   18 1
     7    2   19 1
     8    3    7 1
     9    3    4 2
    10    4    5 1
    11    4   20 1
    12    5    6 1
    13    6    7 2
    14    6    8 1
    15    8   13 ar
    16    8    9 ar
    17    9   10 ar
    18    9   21 1
    19   10   11 ar
    20   10   22 1
    21   11   12 ar
    22   11   14 1
    23   12   13 ar
    24   12   23 1
    25   13   24 1
    26   14   25 1
    27   14   26 1
@<TRIPOS>MOLECULE
ZINC80802003
   30    31     0     0     0
SMALL
USER_CHARGES

@<TRIPOS>ATOM
      1 C1         -0.0187    1.5258    0.0104 C.3       1 <0>        -0.1807
      2 C2          0.0021   -0.0041    0.0020 C.3       1 <0>         0.1154
      3 H1         -1.0205   -0.3814    0.0098 H         1 <0>         0.1520
      4 C3          0.7309   -0.5033    1.2229 C.2       1 <0>        -0.0004
      5 C4          0.0657   -0.6539    2.3990 C.2       1 <0>        -0.1697
      6 S1          1.3841   -1.2512    3.4496 S.3       1 <0>         0.1254
      7 C5          2.6735   -1.2350    2.2111 C.2       1 <0>         0.1669
      8 N1          2.0075   -0.7985    1.1513 N.2       1 <0>        -0.5233
      9 C6          4.0980   -1.6123    2.3344 C.ar      1 <0>         0.0259
     10 C7          4.9454   -1.5179    1.2300 C.ar      1 <0>        -0.1181
     11 C8          6.2760   -1.8713    1.3508 C.ar      1 <0>         0.1396
     12 C9          6.7687   -2.3190    2.5657 C.ar      1 <0>        -0.1631
     13 C10         5.9317   -2.4151    3.6653 C.ar      1 <0>         0.1473
     14 C11         4.6008   -2.0584    3.5570 C.ar      1 <0>        -0.1364
     15 F1          6.4185   -2.8529    4.8470 F         1 <0>        -0.1152
     16 F2          7.0976   -1.7804    0.2822 F         1 <0>        -0.1184
     17 N2          0.6897   -0.4778   -1.2066 N.4       1 <0>        -0.5011
     18 C12        -0.0856   -0.0931   -2.3936 C.3       1 <0>        -0.0523
     19 H2          1.0039    1.9031    0.0027 H         1 <0>         0.0844
     20 H3         -0.5459    1.8868   -0.8726 H         1 <0>         0.0907
     21 H4         -0.5289    1.8773    0.9072 H         1 <0>         0.1069
     22 H5         -0.9714   -0.4650    2.6338 H         1 <0>         0.2131
     23 H6          4.5621   -1.1696    0.2822 H         1 <0>         0.1521
     24 H7          7.8091   -2.5946    2.6557 H         1 <0>         0.1628
     25 H8          3.9502   -2.1290    4.4161 H         1 <0>         0.1501
     26 H9          1.6080   -0.0627   -1.2556 H         1 <0>         0.4347
     27 H10        -1.0777   -0.5415   -2.3406 H         1 <0>         0.1247
     28 H11        -0.1790    0.9922   -2.4305 H         1 <0>         0.1259
     29 H12         0.4246   -0.4447   -3.2904 H         1 <0>         0.1291
     30 H13         0.7761   -1.4825   -1.1724 H         1 <0>         0.4318
@<TRIPOS>BOND
     1    1    2 1
     2    1   19 1
     3    1   20 1
     4    1   21 1
     5    2    3 1
     6    2    4 1
     7    2   17 1
     8    4    8 1
     9    4    5 2
    10    5    6 1
    11    5   22 1
    12    6    7 1
    13    7    8 2
    14    7    9 1
    15    9   14 ar
    16    9   10 ar
    17   10   11 ar
    18   10   23 1
    19   11   12 ar
    20   11   16 1
    21   12   13 ar
    22   12   24 1
    23   13   14 ar
    24   13   15 1
    25   14   25 1
    26   17   18 1
    27   17   26 1
    28   17   30 1
    29   18   27 1
    30   18   28 1
    31   18   29 1
@<TRIPOS>MOLECULE
ZINC40999731
   31    33     0     0     0
SMALL
USER_CHARGES

@<TRIPOS>ATOM
      1 C1         -0.0166    1.3752    0.0096 C.ar      1 <0>        -0.1283
      2 C2          1.1699    2.0875    0.0021 C.ar      1 <0>        -0.0556
      3 C3          2.3826    1.4233   -0.0130 C.ar      1 <0>        -0.1474
      4 C4          2.4165    0.0414   -0.0207 C.ar      1 <0>         0.1288
      5 C5          1.2214   -0.6828   -0.0132 C.ar      1 <0>        -0.0724
      6 C6          0.0021   -0.0041    0.0020 C.ar      1 <0>        -0.0389
      7 C7          1.2485   -2.1608   -0.0213 C.2       1 <0>         0.1701
      8 N1          0.2396   -3.0209   -0.0217 N.2       1 <0>        -0.5037
      9 C8          0.4490   -4.3166   -0.0296 C.2       1 <0>        -0.0121
     10 C9          1.7204   -4.7973   -0.0376 C.2       1 <0>        -0.1910
     11 S1          2.6508   -3.2699   -0.0412 S.3       1 <0>         0.1268
     12 C10        -0.7182   -5.2698   -0.0294 C.3       1 <0>         0.0839
     13 N2         -1.1679   -5.4929    1.3512 N.4       1 <0>        -0.4784
     14 C11        -2.3057   -6.4221    1.3515 C.3       1 <0>        -0.0840
     15 C12        -3.6501   -5.8925    1.8547 C.3       1 <0>        -0.1534
     16 C13        -2.8470   -6.8757    2.7087 C.3       1 <0>        -0.1541
     17 F1          3.6016   -0.6072   -0.0359 F         1 <0>        -0.1244
     18 H1         -0.9600    1.9007    0.0259 H         1 <0>         0.1446
     19 H2          1.1485    3.1673    0.0077 H         1 <0>         0.1471
     20 H3          3.3049    1.9852   -0.0191 H         1 <0>         0.1514
     21 H4         -0.9252   -0.5577    0.0082 H         1 <0>         0.1445
     22 H5          2.0715   -5.8187   -0.0443 H         1 <0>         0.2104
     23 H6         -1.5347   -4.8446   -0.6131 H         1 <0>         0.1451
     24 H7         -0.4125   -6.2188   -0.4698 H         1 <0>         0.1458
     25 H8         -0.4121   -5.8865    1.8916 H         1 <0>         0.4268
     26 H9         -2.3226   -7.1449    0.5358 H         1 <0>         0.1793
     27 H10        -3.6902   -4.8547    2.1855 H         1 <0>         0.1210
     28 H11        -4.5518   -6.2668    1.3700 H         1 <0>         0.1345
     29 H12        -3.2204   -7.8969    2.7858 H         1 <0>         0.1349
     30 H13        -2.3589   -6.4847    3.6014 H         1 <0>         0.1203
     31 H14        -1.4509   -4.6144    1.7589 H         1 <0>         0.4284
@<TRIPOS>BOND
     1    1    6 ar
     2    1    2 ar
     3    1   18 1
     4    2    3 ar
     5    2   19 1
     6    3    4 ar
     7    3   20 1
     8    4    5 ar
     9    4   17 1
    10    5    6 ar
    11    5    7 1
    12    6   21 1
    13    7   11 1
    14    7    8 2
    15    8    9 1
    16    9   10 2
    17    9   12 1
    18   10   11 1
    19   10   22 1
    20   12   13 1
    21   12   23 1
    22   12   24 1
    23   13   14 1
    24   13   25 1
    25   13   31 1
    26   14   16 1
    27   14   15 1
    28   14   26 1
    29   15   16 1
    30   15   27 1
    31   15   28 1
    32   16   29 1
    33   16   30 1
@<TRIPOS>MOLECULE
ZINC80801999
   30    31     0     0     0
SMALL
USER_CHARGES

@<TRIPOS>ATOM
      1 C1         -0.0187    1.5258    0.0104 C.3       1 <0>        -0.1807
      2 C2          0.0021   -0.0041    0.0020 C.3       1 <0>         0.1154
      3 H1         -1.0205   -0.3814    0.0098 H         1 <0>         0.1521
      4 C3          0.7074   -0.4901   -1.2379 C.2       1 <0>        -0.0006
      5 C4          0.0222   -0.6184   -2.4051 C.2       1 <0>        -0.1696
      6 S1          1.3193   -1.2078   -3.4861 S.3       1 <0>         0.1253
      7 C5          2.6289   -1.2189   -2.2687 C.2       1 <0>         0.1669
      8 N1          1.9854   -0.7850   -1.1941 N.2       1 <0>        -0.5232
      9 C6          4.0486   -1.6032   -2.4210 C.ar      1 <0>         0.0259
     10 C7          4.9115   -1.5432   -1.3263 C.ar      1 <0>        -0.1181
     11 C8          6.2374   -1.9041   -1.4740 C.ar      1 <0>         0.1396
     12 C9          6.7103   -2.3243   -2.7065 C.ar      1 <0>        -0.1631
     13 C10         5.8579   -2.3853   -3.7968 C.ar      1 <0>         0.1473
     14 C11         4.5288   -2.0327   -3.6587 C.ar      1 <0>        -0.1364
     15 F1          6.3256   -2.7956   -4.9961 F         1 <0>        -0.1153
     16 F2          7.0740   -1.8465   -0.4148 F         1 <0>        -0.1184
     17 N2          0.7126   -0.4907    1.1921 N.4       1 <0>        -0.5011
     18 C12        -0.0398   -0.1189    2.3978 C.3       1 <0>        -0.0523
     19 H2          1.0039    1.9031    0.0027 H         1 <0>         0.0844
     20 H3         -0.5459    1.8868   -0.8726 H         1 <0>         0.1069
     21 H4         -0.5289    1.8773    0.9072 H         1 <0>         0.0908
     22 H5         -1.0175   -0.4198   -2.6199 H         1 <0>         0.2131
     23 H6          4.5440   -1.2151   -0.3652 H         1 <0>         0.1520
     24 H7          7.7472   -2.6051   -2.8177 H         1 <0>         0.1628
     25 H8          3.8640   -2.0852   -4.5082 H         1 <0>         0.1501
     26 H9          0.7982   -1.4950    1.1455 H         1 <0>         0.4318
     27 H10        -0.1324    0.9660    2.4481 H         1 <0>         0.1259
     28 H11        -1.0328   -0.5668    2.3589 H         1 <0>         0.1247
     29 H12         0.4873   -0.4799    3.2808 H         1 <0>         0.1291
     30 H13         1.6317   -0.0761    1.2281 H         1 <0>         0.4347
@<TRIPOS>BOND
     1    1    2 1
     2    1   19 1
     3    1   20 1
     4    1   21 1
     5    2    3 1
     6    2    4 1
     7    2   17 1
     8    4    8 1
     9    4    5 2
    10    5    6 1
    11    5   22 1
    12    6    7 1
    13    7    8 2
    14    7    9 1
    15    9   14 ar
    16    9   10 ar
    17   10   11 ar
    18   10   23 1
    19   11   12 ar
    20   11   16 1
    21   12   13 ar
    22   12   24 1
    23   13   14 ar
    24   13   15 1
    25   14   25 1
    26   17   18 1
    27   17   26 1
    28   17   30 1
    29   18   27 1
    30   18   28 1
    31   18   29 1
@<TRIPOS>MOLECULE
ZINC35163418
   33    35     0     0     0
SMALL
USER_CHARGES

@<TRIPOS>ATOM
      1 C1         -0.0167    1.3769    0.0096 C.ar      1 <0>        -0.0645
      2 C2          1.1703    2.0866    0.0021 C.ar      1 <0>        -0.1681
      3 C3          2.3799    1.4169   -0.0135 C.ar      1 <0>        -0.0615
      4 C4          2.4062    0.0351   -0.0216 C.ar      1 <0>        -0.1137
      5 C5          1.2148   -0.6807   -0.0136 C.ar      1 <0>         0.2293
      6 C6          0.0021   -0.0041    0.0020 C.ar      1 <0>        -0.1893
      7 N1          1.2372   -2.0780   -0.0222 N.pl3     1 <0>        -0.7369
      8 C7         -0.0196   -2.8308   -0.0137 C.3       1 <0>         0.1979
      9 C8          0.2794   -4.3078   -0.0256 C.2       1 <0>         0.0383
     10 C9          0.3210   -5.0033    1.1414 C.2       1 <0>        -0.1772
     11 S1          0.7023   -6.6422    0.5355 S.3       1 <0>         0.0301
     12 C10         0.7645   -6.2231   -1.2016 C.2       1 <0>         0.1576
     13 N2          0.4948   -4.9257   -1.1634 N.2       1 <0>        -0.4847
     14 C11         1.0376   -7.0909   -2.3671 C.ar      1 <0>        -0.0314
     15 C12         1.0443   -6.5525   -3.6547 C.ar      1 <0>        -0.0387
     16 C13         1.2996   -7.3664   -4.7384 C.ar      1 <0>        -0.1535
     17 C14         1.5488   -8.7167   -4.5505 C.ar      1 <0>         0.1223
     18 C15         1.5433   -9.2563   -3.2741 C.ar      1 <0>        -0.1511
     19 C16         1.2953   -8.4501   -2.1830 C.ar      1 <0>        -0.0611
     20 F1          1.7974   -9.5098   -5.6156 F         1 <0>        -0.1316
     21 Cl1         3.9251   -0.8053   -0.0422 Cl        1 <0>        -0.0751
     22 H1         -0.9595    1.9034    0.0259 H         1 <0>         0.1280
     23 H2          1.1524    3.1664    0.0080 H         1 <0>         0.1283
     24 H3          3.3050    1.9742   -0.0197 H         1 <0>         0.1317
     25 H4         -0.9255   -0.5573    0.0082 H         1 <0>         0.1296
     26 H5          2.0848   -2.5494   -0.0337 H         1 <0>         0.4039
     27 H6         -0.5861   -2.5820    0.8837 H         1 <0>         0.0799
     28 H7         -0.6045   -2.5713   -0.8962 H         1 <0>         0.0799
     29 H8          0.1669   -4.6610    2.1541 H         1 <0>         0.2036
     30 H9          0.8495   -5.5005   -3.8022 H         1 <0>         0.1470
     31 H10         1.3050   -6.9508   -5.7352 H         1 <0>         0.1462
     32 H11         1.7381  -10.3092   -3.1332 H         1 <0>         0.1465
     33 H12         1.2961   -8.8707   -1.1882 H         1 <0>         0.1380
@<TRIPOS>BOND
     1    1    6 ar
     2    1    2 ar
     3    1   22 1
     4    2    3 ar
     5    2   23 1
     6    3    4 ar
     7    3   24 1
     8    4    5 ar
     9    4   21 1
    10    5    6 ar
    11    5    7 1
    12    6   25 1
    13    7    8 1
    14    7   26 1
    15    8    9 1
    16    8   27 1
    17    8   28 1
    18    9   13 1
    19    9   10 2
    20   10   11 1
    21   10   29 1
    22   11   12 1
    23   12   13 2
    24   12   14 1
    25   14   19 ar
    26   14   15 ar
    27   15   16 ar
    28   15   30 1
    29   16   17 ar
    30   16   31 1
    31   17   18 ar
    32   17   20 1
    33   18   19 ar
    34   18   32 1
    35   19   33 1
@<TRIPOS>MOLECULE
ZINC41010170
   31    33     0     0     0
SMALL
USER_CHARGES

@<TRIPOS>ATOM
      1 C1         -0.0167    1.3804    0.0096 C.ar      1 <0>        -0.1010
      2 C2          1.1666    2.0897    0.0021 C.ar      1 <0>        -0.0615
      3 C3          2.3847    1.4094   -0.0131 C.ar      1 <0>        -0.0269
      4 C4          2.3980    0.0125   -0.0207 C.ar      1 <0>         0.0201
      5 C5          1.2072   -0.6858   -0.0131 C.ar      1 <0>        -0.1045
      6 C6          0.0021   -0.0041    0.0020 C.ar      1 <0>         0.0025
      7 Cl1        -1.4915   -0.8889    0.0120 Cl        1 <0>        -0.0301
      8 Cl2         3.9083   -0.8431   -0.0402 Cl        1 <0>        -0.0259
      9 C7          3.6561    2.1637   -0.0217 C.2       1 <0>         0.1675
     10 N1          4.9023    1.7121   -0.0415 N.2       1 <0>        -0.4835
     11 C8          5.9251    2.5347   -0.0467 C.2       1 <0>        -0.0122
     12 C9          5.7146    3.8775   -0.0317 C.2       1 <0>        -0.1749
     13 S1          3.9270    3.9311   -0.0161 S.3       1 <0>         0.1066
     14 C10         7.3306    1.9913   -0.0689 C.3       1 <0>         0.0829
     15 N2          7.7605    1.6893    1.3029 N.4       1 <0>        -0.4787
     16 C11         9.1305    1.1596    1.2813 C.3       1 <0>        -0.0840
     17 C12         9.3396   -0.2784    1.7601 C.3       1 <0>        -0.1539
     18 C13         9.8059    0.8923    2.6279 C.3       1 <0>        -0.1533
     19 H1         -0.9599    1.9063    0.0260 H         1 <0>         0.1562
     20 H2          1.1501    3.1695    0.0077 H         1 <0>         0.1480
     21 H3          1.2155   -1.7657   -0.0189 H         1 <0>         0.1573
     22 H4          6.4288    4.6876   -0.0332 H         1 <0>         0.2118
     23 H5          7.3586    1.0807   -0.6673 H         1 <0>         0.1451
     24 H6          8.0000    2.7331   -0.5045 H         1 <0>         0.1465
     25 H7          7.7345    2.5323    1.8568 H         1 <0>         0.4267
     26 H8          9.7591    1.5150    0.4648 H         1 <0>         0.1797
     27 H9          8.4606   -0.8314    2.0911 H         1 <0>         0.1206
     28 H10        10.1058   -0.8695    1.2585 H         1 <0>         0.1346
     29 H11        10.8788    1.0713    2.6972 H         1 <0>         0.1351
     30 H12         9.2336    1.1094    3.5298 H         1 <0>         0.1204
     31 H13         7.1408    1.0027    1.7061 H         1 <0>         0.4286
@<TRIPOS>BOND
     1    1    6 ar
     2    1    2 ar
     3    1   19 1
     4    2    3 ar
     5    2   20 1
     6    3    4 ar
     7    3    9 1
     8    4    5 ar
     9    4    8 1
    10    5    6 ar
    11    5   21 1
    12    6    7 1
    13    9   13 1
    14    9   10 2
    15   10   11 1
    16   11   12 2
    17   11   14 1
    18   12   13 1
    19   12   22 1
    20   14   15 1
    21   14   23 1
    22   14   24 1
    23   15   16 1
    24   15   25 1
    25   15   31 1
    26   16   18 1
    27   16   17 1
    28   16   26 1
    29   17   18 1
    30   17   27 1
    31   17   28 1
    32   18   29 1
    33   18   30 1
@<TRIPOS>MOLECULE
ZINC14193513
   37    39     0     0     0
SMALL
USER_CHARGES

@<TRIPOS>ATOM
      1 C1         -0.0166    1.3752    0.0096 C.ar      1 <0>        -0.1119
      2 C2          1.1701    2.0869    0.0021 C.ar      1 <0>        -0.0739
      3 C3          2.3826    1.4218   -0.0130 C.ar      1 <0>        -0.1028
      4 C4          2.4159    0.0410   -0.0212 C.ar      1 <0>        -0.0187
      5 C5          1.2216   -0.6825   -0.0136 C.ar      1 <0>        -0.0262
      6 C6          0.0021   -0.0041    0.0020 C.ar      1 <0>        -0.0550
      7 C7          1.2488   -2.1607   -0.0228 C.2       1 <0>         0.1615
      8 N1          0.2401   -3.0208   -0.0234 N.2       1 <0>        -0.4996
      9 C8          0.4494   -4.3164   -0.0329 C.2       1 <0>        -0.0057
     10 C9          1.7209   -4.7972   -0.0424 C.2       1 <0>        -0.2111
     11 S1          2.6512   -3.2697   -0.0439 S.3       1 <0>         0.1376
     12 C10        -0.7179   -5.2696   -0.0328 C.3       1 <0>         0.0752
     13 N2         -1.1665   -5.4943    1.3478 N.4       1 <0>        -0.3809
     14 C11        -0.1035   -6.1689    2.1024 C.3       1 <0>        -0.0123
     15 C12        -0.5338   -6.3328    3.5617 C.3       1 <0>        -0.1444
     16 C13        -1.8140   -7.1712    3.6196 C.3       1 <0>        -0.1384
     17 C14        -2.8934   -6.4963    2.7684 C.3       1 <0>        -0.1459
     18 C15        -2.3757   -6.3263    1.3386 C.3       1 <0>        -0.0061
     19 Cl1         3.9384   -0.7927   -0.0413 Cl        1 <0>        -0.0293
     20 H1         -0.9599    1.9010    0.0259 H         1 <0>         0.1443
     21 H2          1.1494    3.1667    0.0077 H         1 <0>         0.1466
     22 H3          3.3052    1.9832   -0.0188 H         1 <0>         0.1491
     23 H4         -0.9251   -0.5578    0.0082 H         1 <0>         0.1446
     24 H5          2.0720   -5.8185   -0.0509 H         1 <0>         0.2051
     25 H6         -1.5348   -4.8437   -0.6155 H         1 <0>         0.1427
     26 H7         -0.4125   -6.2181   -0.4746 H         1 <0>         0.1417
     27 H8          0.0839   -7.1504    1.6669 H         1 <0>         0.1297
     28 H9          0.8079   -5.5726    2.0576 H         1 <0>         0.1251
     29 H10         0.2561   -6.8354    4.1198 H         1 <0>         0.1114
     30 H11        -0.7212   -5.3517    3.9983 H         1 <0>         0.0857
     31 H12        -1.6139   -8.1694    3.2300 H         1 <0>         0.0823
     32 H13        -2.1560   -7.2434    4.6520 H         1 <0>         0.0941
     33 H14        -3.7902   -7.1158    2.7596 H         1 <0>         0.1131
     34 H15        -3.1298   -5.5186    3.1886 H         1 <0>         0.0871
     35 H16        -3.1418   -5.8462    0.7298 H         1 <0>         0.1311
     36 H17        -2.1399   -7.3045    0.9193 H         1 <0>         0.1295
     37 H18        -1.3732   -4.6071    1.7818 H         1 <0>         0.4248
@<TRIPOS>BOND
     1    1    6 ar
     2    1    2 ar
     3    1   20 1
     4    2    3 ar
     5    2   21 1
     6    3    4 ar
     7    3   22 1
     8    4    5 ar
     9    4   19 1
    10    5    6 ar
    11    5    7 1
    12    6   23 1
    13    7   11 1
    14    7    8 2
    15    8    9 1
    16    9   10 2
    17    9   12 1
    18   10   11 1
    19   10   24 1
    20   12   13 1
    21   12   25 1
    22   12   26 1
    23   13   18 1
    24   13   14 1
    25   13   37 1
    26   14   15 1
    27   14   27 1
    28   14   28 1
    29   15   16 1
    30   15   29 1
    31   15   30 1
    32   16   17 1
    33   16   31 1
    34   16   32 1
    35   17   18 1
    36   17   33 1
    37   17   34 1
    38   18   35 1
    39   18   36 1
@<TRIPOS>MOLECULE
ZINC87589974
   33    35     0     0     0
SMALL
USER_CHARGES

@<TRIPOS>ATOM
      1 C1         -0.0166    1.3752    0.0096 C.ar      1 <0>        -0.1130
      2 C2          1.1701    2.0869    0.0021 C.ar      1 <0>        -0.0824
      3 C3          2.3826    1.4218   -0.0130 C.ar      1 <0>        -0.1044
      4 C4          2.4159    0.0410   -0.0212 C.ar      1 <0>        -0.0222
      5 C5          1.2216   -0.6825   -0.0136 C.ar      1 <0>        -0.0138
      6 C6          0.0021   -0.0041    0.0020 C.ar      1 <0>        -0.0590
      7 C7          1.2488   -2.1607   -0.0228 C.2       1 <0>         0.1457
      8 N1          0.2401   -3.0208   -0.0234 N.2       1 <0>        -0.4837
      9 C8          0.4494   -4.3164   -0.0329 C.2       1 <0>         0.0575
     10 C9          1.7209   -4.7972   -0.0424 C.2       1 <0>        -0.2282
     11 S1          2.6512   -3.2697   -0.0439 S.3       1 <0>         0.0853
     12 C10        -0.7179   -5.2696   -0.0328 C.3       1 <0>         0.0924
     13 N2         -1.1665   -5.4943    1.3478 N.3       1 <0>        -0.4729
     14 C11        -0.5309   -6.6953    1.9212 C.3       1 <0>        -0.0086
     15 C12        -1.8880   -7.0467    2.5468 C.3       1 <0>        -0.0200
     16 C13        -2.4462   -6.2268    1.3752 C.3       1 <0>        -0.0044
     17 N3         -2.1165   -6.4428    3.8663 N.4       1 <0>        -0.6148
     18 Cl1         3.9384   -0.7927   -0.0413 Cl        1 <0>        -0.0328
     19 H1         -0.9599    1.9010    0.0259 H         1 <0>         0.1413
     20 H2          1.1494    3.1667    0.0077 H         1 <0>         0.1434
     21 H3          3.3052    1.9832   -0.0188 H         1 <0>         0.1460
     22 H4         -0.9251   -0.5578    0.0082 H         1 <0>         0.1440
     23 H5          2.0720   -5.8185   -0.0509 H         1 <0>         0.1922
     24 H6         -1.5348   -4.8437   -0.6155 H         1 <0>         0.1017
     25 H7         -0.4125   -6.2181   -0.4746 H         1 <0>         0.0758
     26 H8         -0.2005   -7.4124    1.1697 H         1 <0>         0.1151
     27 H9          0.2408   -6.4689    2.6569 H         1 <0>         0.1089
     28 H10        -2.1363   -8.1073    2.5076 H         1 <0>         0.1635
     29 H11        -3.2976   -5.6034    1.6481 H         1 <0>         0.1124
     30 H12        -2.6269   -6.8188    0.4780 H         1 <0>         0.1153
     31 H13        -2.0781   -5.4377    3.7874 H         1 <0>         0.4414
     32 H14        -3.0242   -6.7188    4.2099 H         1 <0>         0.4396
     33 H15        -1.4041   -6.7573    4.5080 H         1 <0>         0.4387
@<TRIPOS>BOND
     1    1    6 ar
     2    1    2 ar
     3    1   19 1
     4    2    3 ar
     5    2   20 1
     6    3    4 ar
     7    3   21 1
     8    4    5 ar
     9    4   18 1
    10    5    6 ar
    11    5    7 1
    12    6   22 1
    13    7   11 1
    14    7    8 2
    15    8    9 1
    16    9   10 2
    17    9   12 1
    18   10   11 1
    19   10   23 1
    20   12   13 1
    21   12   24 1
    22   12   25 1
    23   13   16 1
    24   13   14 1
    25   14   15 1
    26   14   26 1
    27   14   27 1
    28   15   16 1
    29   15   17 1
    30   15   28 1
    31   16   29 1
    32   16   30 1
    33   17   31 1
    34   17   32 1
    35   17   33 1
@<TRIPOS>MOLECULE
ZINC49826400
   40    41     0     0     0
SMALL
USER_CHARGES

@<TRIPOS>ATOM
      1 C1         -0.2088    0.0354   -0.9475 C.3       1 <0>        -0.1858
      2 C2         -0.2988    0.3093    0.5551 C.3       1 <0>         0.0168
      3 C3         -1.6984   -0.0522    1.0565 C.3       1 <0>        -0.1729
      4 N1          0.6997   -0.5040    1.2618 N.4       1 <0>        -0.3781
      5 C4          0.5415   -0.3234    2.7111 C.3       1 <0>        -0.0147
      6 C5          0.9012    1.1151    3.0881 C.3       1 <0>         0.0506
      7 O1         -0.0682    2.0087    2.5369 O.3       1 <0>        -0.5707
      8 C6          0.5080   -1.9199    0.9210 C.3       1 <0>         0.0636
      9 C7          1.3831   -2.2770   -0.2528 C.2       1 <0>        -0.0072
     10 C8          2.6175   -2.8073   -0.0453 C.2       1 <0>        -0.2060
     11 S1          3.1725   -3.0211   -1.7320 S.3       1 <0>         0.1331
     12 C9          1.7038   -2.3826   -2.5271 C.2       1 <0>         0.1547
     13 N2          0.9525   -2.0816   -1.4771 N.2       1 <0>        -0.4854
     14 C10         1.4054   -2.2352   -3.9676 C.ar      1 <0>        -0.0238
     15 C11         0.1837   -1.7006   -4.3792 C.ar      1 <0>        -0.0568
     16 C12        -0.0887   -1.5657   -5.7247 C.ar      1 <0>        -0.1118
     17 C13         0.8460   -1.9590   -6.6664 C.ar      1 <0>        -0.0748
     18 C14         2.0589   -2.4896   -6.2664 C.ar      1 <0>        -0.1027
     19 C15         2.3469   -2.6249   -4.9223 C.ar      1 <0>        -0.0192
     20 Cl1         3.8727   -3.2843   -4.4214 Cl        1 <0>        -0.0295
     21 H1         -0.5467   -0.9804   -1.1525 H         1 <0>         0.1157
     22 H2         -0.8399    0.7436   -1.4843 H         1 <0>         0.0876
     23 H3          0.8244    0.1479   -1.2760 H         1 <0>         0.0647
     24 H4         -0.1068    1.3655    0.7441 H         1 <0>         0.1547
     25 H5         -1.8505   -1.1277    0.9653 H         1 <0>         0.0712
     26 H6         -1.7971    0.2414    2.1015 H         1 <0>         0.0840
     27 H7         -2.4448    0.4722    0.4597 H         1 <0>         0.0996
     28 H8         -0.4924   -0.5248    2.9916 H         1 <0>         0.1423
     29 H9          1.2016   -1.0129    3.2374 H         1 <0>         0.1417
     30 H10         0.9113    1.2146    4.1735 H         1 <0>         0.0966
     31 H11         1.8869    1.3589    2.6917 H         1 <0>         0.0691
     32 H12         0.1377    2.9439    2.6712 H         1 <0>         0.4033
     33 H13         0.7772   -2.5393    1.7766 H         1 <0>         0.1402
     34 H14        -0.5364   -2.0930    0.6615 H         1 <0>         0.1455
     35 H15         3.1231   -3.0358    0.8813 H         1 <0>         0.2043
     36 H16        -0.5471   -1.3935   -3.6457 H         1 <0>         0.1440
     37 H17        -1.0340   -1.1525   -6.0441 H         1 <0>         0.1438
     38 H18         0.6271   -1.8513   -7.7185 H         1 <0>         0.1460
     39 H19         2.7840   -2.7945   -7.0064 H         1 <0>         0.1485
     40 H20         1.6259   -0.2140    0.9859 H         1 <0>         0.4178
@<TRIPOS>BOND
     1    1    2 1
     2    1   21 1
     3    1   22 1
     4    1   23 1
     5    2    3 1
     6    2    4 1
     7    2   24 1
     8    3   25 1
     9    3   26 1
    10    3   27 1
    11    4    5 1
    12    4    8 1
    13    4   40 1
    14    5    6 1
    15    5   28 1
    16    5   29 1
    17    6    7 1
    18    6   30 1
    19    6   31 1
    20    7   32 1
    21    8    9 1
    22    8   33 1
    23    8   34 1
    24    9   13 1
    25    9   10 2
    26   10   11 1
    27   10   35 1
    28   11   12 1
    29   12   13 2
    30   12   14 1
    31   14   19 ar
    32   14   15 ar
    33   15   16 ar
    34   15   36 1
    35   16   17 ar
    36   16   37 1
    37   17   18 ar
    38   17   38 1
    39   18   19 ar
    40   18   39 1
    41   19   20 1
@<TRIPOS>MOLECULE
ZINC85220197
   20    21     0     0     0
SMALL
USER_CHARGES

@<TRIPOS>ATOM
      1 C1         -0.0167    1.3803    0.0096 C.ar      1 <0>        -0.0908
      2 C2          1.1682    2.0940    0.0022 C.ar      1 <0>        -0.0686
      3 C3          2.3780    1.4290   -0.0130 C.ar      1 <0>        -0.0845
      4 C4          2.4039    0.0329   -0.0208 C.ar      1 <0>         0.0373
      5 C5          1.2057   -0.6811   -0.0132 C.ar      1 <0>        -0.0631
      6 C6          0.0021   -0.0041    0.0020 C.ar      1 <0>        -0.0175
      7 Cl1        -1.4904   -0.8907    0.0121 Cl        1 <0>        -0.0436
      8 C7          3.6965   -0.6857   -0.0375 C.2       1 <0>         0.0676
      9 N1          3.9233   -1.9850   -0.0521 N.2       1 <0>        -0.4189
     10 C8          5.1810   -2.4108   -0.0664 C.2       1 <0>        -0.0644
     11 C9          6.1986   -1.4727   -0.0653 C.2       1 <0>        -0.2390
     12 S1          5.3509   -0.0189   -0.0509 S.3       1 <0>         0.2273
     13 C10         5.4850   -3.8436   -0.0825 C.2       1 <0>         0.4013
     14 O1          4.5829   -4.6553   -0.0834 O.2       1 <0>        -0.4379
     15 Br1         3.9965    2.4068   -0.0238 Br        1 <0>         0.0037
     16 H1         -0.9604    1.9051    0.0260 H         1 <0>         0.1520
     17 H2          1.1469    3.1737    0.0078 H         1 <0>         0.1537
     18 H3          1.2192   -1.7610   -0.0195 H         1 <0>         0.1573
     19 H4          7.2666   -1.6331   -0.0754 H         1 <0>         0.2069
     20 H5          6.5120   -4.1776   -0.0936 H         1 <0>         0.1210
@<TRIPOS>BOND
     1    1    6 ar
     2    1    2 ar
     3    1   16 1
     4    2    3 ar
     5    2   17 1
     6    3    4 ar
     7    3   15 1
     8    4    5 ar
     9    4    8 1
    10    5    6 ar
    11    5   18 1
    12    6    7 1
    13    8   12 1
    14    8    9 2
    15    9   10 1
    16   10   11 2
    17   10   13 1
    18   11   12 1
    19   11   19 1
    20   13   14 2
    21   13   20 1
@<TRIPOS>MOLECULE
ZINC41010181
   37    40     0     0     0
SMALL
USER_CHARGES

@<TRIPOS>ATOM
      1 C1          3.1513   -4.0015   -2.4554 C.ar      1 <0>        -0.1140
      2 C2          4.3574   -3.3048   -2.4811 C.ar      1 <0>        -0.0982
      3 C3          4.5469   -2.2036   -1.7016 C.ar      1 <0>        -0.1149
      4 C4          3.5157   -1.7623   -0.8610 C.ar      1 <0>        -0.0117
      5 C5          2.2887   -2.4688   -0.8337 C.ar      1 <0>        -0.0575
      6 C6          2.1285   -3.6012   -1.6512 C.ar      1 <0>        -0.0948
      7 C7          1.2535   -2.0268    0.0080 C.ar      1 <0>        -0.0611
      8 C8          1.4320   -0.9260    0.7911 C.ar      1 <0>        -0.1274
      9 C9          2.6287   -0.2202    0.7776 C.ar      1 <0>        -0.0581
     10 C10         3.6766   -0.6210   -0.0368 C.ar      1 <0>        -0.0399
     11 C11         4.9448    0.1329   -0.0458 C.2       1 <0>         0.1880
     12 N1          6.1916   -0.3158    0.0236 N.2       1 <0>        -0.5001
     13 C12         7.2132    0.5067    0.0018 C.2       1 <0>        -0.0142
     14 C13         7.0024    1.8471   -0.0936 C.2       1 <0>        -0.1813
     15 S1          5.2159    1.8964   -0.1612 S.3       1 <0>         0.0954
     16 C14         8.6181   -0.0324    0.0828 C.3       1 <0>         0.0833
     17 N2          8.9866   -0.2291    1.4912 N.4       1 <0>        -0.4783
     18 C15        10.3561   -0.7547    1.5701 C.3       1 <0>        -0.0840
     19 C16        10.5434   -2.1520    2.1646 C.3       1 <0>        -0.1535
     20 C17        10.9710   -0.9180    2.9616 C.3       1 <0>        -0.1539
     21 H1          3.0243   -4.8691   -3.0859 H         1 <0>         0.1307
     22 H2          5.1536   -3.6426   -3.1279 H         1 <0>         0.1266
     23 H3          5.4873   -1.6734   -1.7310 H         1 <0>         0.1268
     24 H4          1.1987   -4.1505   -1.6415 H         1 <0>         0.1362
     25 H5          0.3149   -2.5603    0.0339 H         1 <0>         0.1397
     26 H6          0.6288   -0.5960    1.4333 H         1 <0>         0.1391
     27 H7          2.7437    0.6492    1.4079 H         1 <0>         0.1314
     28 H8          7.7163    2.6569   -0.1244 H         1 <0>         0.2101
     29 H9          8.6724   -0.9854   -0.4435 H         1 <0>         0.1448
     30 H10         9.3064    0.6765   -0.3773 H         1 <0>         0.1456
     31 H11         8.9363    0.6530    1.9784 H         1 <0>         0.4265
     32 H12        11.0204   -0.4598    0.7578 H         1 <0>         0.1793
     33 H13         9.6504   -2.6814    2.4970 H         1 <0>         0.1211
     34 H14        11.3309   -2.7768    1.7432 H         1 <0>         0.1344
     35 H15        12.0398   -0.7310    3.0646 H         1 <0>         0.1349
     36 H16        10.3593   -0.6355    3.8184 H         1 <0>         0.1203
     37 H17         8.3494   -0.8854    1.9171 H         1 <0>         0.4290
@<TRIPOS>BOND
     1    1    6 ar
     2    1    2 ar
     3    1   21 1
     4    2    3 ar
     5    2   22 1
     6    3    4 ar
     7    3   23 1
     8    4   10 ar
     9    4    5 ar
    10    5    6 ar
    11    5    7 ar
    12    6   24 1
    13    7    8 ar
    14    7   25 1
    15    8    9 ar
    16    8   26 1
    17    9   10 ar
    18    9   27 1
    19   10   11 1
    20   11   15 1
    21   11   12 2
    22   12   13 1
    23   13   14 2
    24   13   16 1
    25   14   15 1
    26   14   28 1
    27   16   17 1
    28   16   29 1
    29   16   30 1
    30   17   18 1
    31   17   31 1
    32   17   37 1
    33   18   20 1
    34   18   19 1
    35   18   32 1
    36   19   20 1
    37   19   33 1
    38   19   34 1
    39   20   35 1
    40   20   36 1
@<TRIPOS>MOLECULE
ZINC41010119
   39    40     0     0     0
SMALL
USER_CHARGES

@<TRIPOS>ATOM
      1 C1          0.3751    1.4683    0.2685 C.3       1 <0>        -0.1270
      2 C2          0.1908   -0.0206    0.1256 C.ar      1 <0>        -0.0421
      3 C3         -0.7667   -0.6719    0.8830 C.ar      1 <0>        -0.1256
      4 C4         -0.9407   -2.0345    0.7566 C.ar      1 <0>        -0.0726
      5 C5         -0.1484   -2.7562   -0.1375 C.ar      1 <0>        -0.0561
      6 C6          0.8153   -2.0934   -0.8982 C.ar      1 <0>        -0.0256
      7 C7          0.9757   -0.7292   -0.7662 C.ar      1 <0>        -0.1243
      8 C8          1.6751   -2.8647   -1.8661 C.3       1 <0>        -0.1135
      9 C9         -0.3293   -4.2171   -0.2776 C.2       1 <0>         0.1931
     10 N1         -0.4217   -4.9517   -1.3772 N.2       1 <0>        -0.5001
     11 C10        -0.5825   -6.2526   -1.3160 C.2       1 <0>        -0.0120
     12 C11        -0.6571   -6.8699   -0.1069 C.2       1 <0>        -0.1833
     13 S1         -0.4743   -5.4694    0.9903 S.3       1 <0>         0.0866
     14 C12        -0.6848   -7.0610   -2.5837 C.3       1 <0>         0.0744
     15 N2         -2.0748   -7.0530   -3.0587 N.4       1 <0>        -0.5066
     16 C13        -2.1746   -7.8410   -4.2944 C.3       1 <0>         0.0245
     17 C14        -3.6407   -7.9370   -4.7212 C.3       1 <0>        -0.1842
     18 C15        -1.3651   -7.1603   -5.4001 C.3       1 <0>        -0.1853
     19 H1         -0.2776    1.9844   -0.4356 H         1 <0>         0.0806
     20 H2          0.1234    1.7697    1.2853 H         1 <0>         0.0749
     21 H3          1.4129    1.7277    0.0590 H         1 <0>         0.0743
     22 H4         -1.3788   -0.1124    1.5747 H         1 <0>         0.1362
     23 H5         -1.6881   -2.5418    1.3485 H         1 <0>         0.1293
     24 H6          1.7183   -0.2142   -1.3576 H         1 <0>         0.1354
     25 H7          1.1467   -2.9754   -2.8130 H         1 <0>         0.0792
     26 H8          2.6084   -2.3265   -2.0316 H         1 <0>         0.0728
     27 H9          1.8921   -3.8500   -1.4538 H         1 <0>         0.0621
     28 H10        -0.7867   -7.9164    0.1264 H         1 <0>         0.2087
     29 H11        -0.0380   -6.6256   -3.3454 H         1 <0>         0.1456
     30 H12        -0.3741   -8.0870   -2.3864 H         1 <0>         0.1446
     31 H13        -2.6735   -7.4561   -2.3536 H         1 <0>         0.4258
     32 H14        -1.7807   -8.8422   -4.1197 H         1 <0>         0.1401
     33 H15        -4.0346   -6.9358   -4.8959 H         1 <0>         0.0813
     34 H16        -3.7147   -8.5217   -5.6381 H         1 <0>         0.1077
     35 H17        -4.2174   -8.4219   -3.9335 H         1 <0>         0.0814
     36 H18        -0.3206   -7.0919   -5.0960 H         1 <0>         0.0817
     37 H19        -1.4391   -7.7450   -6.3170 H         1 <0>         0.1064
     38 H20        -1.7590   -6.1591   -5.5748 H         1 <0>         0.0824
     39 H21        -2.3624   -6.1033   -3.2413 H         1 <0>         0.4292
@<TRIPOS>BOND
     1    1    2 1
     2    1   19 1
     3    1   20 1
     4    1   21 1
     5    2    7 ar
     6    2    3 ar
     7    3    4 ar
     8    3   22 1
     9    4    5 ar
    10    4   23 1
    11    5    6 ar
    12    5    9 1
    13    6    7 ar
    14    6    8 1
    15    7   24 1
    16    8   25 1
    17    8   26 1
    18    8   27 1
    19    9   13 1
    20    9   10 2
    21   10   11 1
    22   11   12 2
    23   11   14 1
    24   12   13 1
    25   12   28 1
    26   14   15 1
    27   14   29 1
    28   14   30 1
    29   15   16 1
    30   15   31 1
    31   15   39 1
    32   16   17 1
    33   16   18 1
    34   16   32 1
    35   17   33 1
    36   17   34 1
    37   17   35 1
    38   18   36 1
    39   18   37 1
    40   18   38 1
@<TRIPOS>MOLECULE
ZINC40999605
   29    30     0     0     0
SMALL
USER_CHARGES

@<TRIPOS>ATOM
      1 C1         -0.0187    1.5258    0.0104 C.3       1 <0>        -0.1901
      2 C2          0.0021   -0.0041    0.0020 C.3       1 <0>        -0.0095
      3 N1          0.6897   -0.4778   -1.2066 N.4       1 <0>        -0.5090
      4 C3          0.7096   -1.9467   -1.2147 C.3       1 <0>         0.0778
      5 C4          1.4150   -2.4327   -2.4546 C.2       1 <0>        -0.0089
      6 C5          2.7377   -2.7435   -2.4078 C.2       1 <0>        -0.1791
      7 S1          3.0194   -3.2420   -4.1022 S.3       1 <0>         0.0978
      8 C6          1.3494   -2.9826   -4.6859 C.2       1 <0>         0.1847
      9 N2          0.7523   -2.5617   -3.5798 N.2       1 <0>        -0.5052
     10 C7          0.7853   -3.1870   -6.0375 C.ar      1 <0>        -0.0958
     11 C8          1.5915   -3.6545   -7.0819 C.ar      1 <0>        -0.0405
     12 C9          1.0151   -3.8293   -8.3275 C.ar      1 <0>        -0.1651
     13 C10        -0.3266   -3.5393   -8.4995 C.ar      1 <0>         0.1348
     14 N3         -1.0622   -3.0999   -7.4966 N.ar      1 <0>        -0.4793
     15 C11        -0.5607   -2.9226   -6.2916 C.ar      1 <0>         0.1598
     16 H1          1.0039    1.9031    0.0027 H         1 <0>         0.0803
     17 H2         -0.5459    1.8868   -0.8726 H         1 <0>         0.0809
     18 H3         -0.5289    1.8773    0.9072 H         1 <0>         0.1083
     19 H4          0.5293   -0.3651    0.8851 H         1 <0>         0.1325
     20 H5         -1.0205   -0.3814    0.0098 H         1 <0>         0.1330
     21 H6          0.2017   -0.1436   -2.0240 H         1 <0>         0.4312
     22 H7          1.2368   -2.3077   -0.3316 H         1 <0>         0.1462
     23 H8         -0.3130   -2.3239   -1.2069 H         1 <0>         0.1459
     24 H9          3.4272   -2.7010   -1.5777 H         1 <0>         0.2116
     25 H10         2.6367   -3.8728   -6.9196 H         1 <0>         0.1415
     26 H11         1.6065   -4.1880   -9.1569 H         1 <0>         0.1528
     27 H12        -0.7790   -3.6744   -9.4708 H         1 <0>         0.1710
     28 H13        -1.1959   -2.5653   -5.4946 H         1 <0>         0.1668
     29 H14         1.6363   -0.1286   -1.2138 H         1 <0>         0.4260
@<TRIPOS>BOND
     1    1    2 1
     2    1   16 1
     3    1   17 1
     4    1   18 1
     5    2    3 1
     6    2   19 1
     7    2   20 1
     8    3    4 1
     9    3   21 1
    10    3   29 1
    11    4    5 1
    12    4   22 1
    13    4   23 1
    14    5    9 1
    15    5    6 2
    16    6    7 1
    17    6   24 1
    18    7    8 1
    19    8    9 2
    20    8   10 1
    21   10   15 ar
    22   10   11 ar
    23   11   12 ar
    24   11   25 1
    25   12   13 ar
    26   12   26 1
    27   13   14 ar
    28   13   27 1
    29   14   15 ar
    30   15   28 1
@<TRIPOS>MOLECULE
ZINC37974104
   20    21     0     0     0
SMALL
USER_CHARGES

@<TRIPOS>ATOM
      1 C1         -0.0167    1.3791    0.0096 C.ar      1 <0>        -0.0783
      2 C2          1.1678    2.0934    0.0022 C.ar      1 <0>        -0.1012
      3 C3          2.3785    1.4292   -0.0130 C.ar      1 <0>        -0.0180
      4 C4          2.4051    0.0331   -0.0208 C.ar      1 <0>         0.0054
      5 C5          1.2055   -0.6815   -0.0132 C.ar      1 <0>         0.0036
      6 C6          0.0021   -0.0041    0.0020 C.ar      1 <0>        -0.1043
      7 Cl1         1.2267   -2.4174   -0.0233 Cl        1 <0>        -0.0093
      8 C7          3.6974   -0.6852   -0.0375 C.2       1 <0>         0.0749
      9 N1          3.9237   -1.9845   -0.0521 N.2       1 <0>        -0.4051
     10 C8          5.1872   -2.4103   -0.0662 C.2       1 <0>        -0.0653
     11 C9          6.2017   -1.4692   -0.0647 C.2       1 <0>        -0.2349
     12 S1          5.3512   -0.0173   -0.0509 S.3       1 <0>         0.2151
     13 C10         5.4945   -3.8423   -0.0823 C.2       1 <0>         0.4014
     14 O1          4.5943   -4.6561   -0.0834 O.2       1 <0>        -0.4358
     15 Cl2         3.8639    2.3277   -0.0229 Cl        1 <0>        -0.0258
     16 H1         -0.9606    1.9036    0.0260 H         1 <0>         0.1503
     17 H2          1.1458    3.1732    0.0078 H         1 <0>         0.1500
     18 H3         -0.9265   -0.5555    0.0079 H         1 <0>         0.1495
     19 H4          7.2701   -1.6269   -0.0745 H         1 <0>         0.2080
     20 H5          6.5223   -4.1740   -0.0931 H         1 <0>         0.1198
@<TRIPOS>BOND
     1    1    6 ar
     2    1    2 ar
     3    1   16 1
     4    2    3 ar
     5    2   17 1
     6    3    4 ar
     7    3   15 1
     8    4    5 ar
     9    4    8 1
    10    5    6 ar
    11    5    7 1
    12    6   18 1
    13    8   12 1
    14    8    9 2
    15    9   10 1
    16   10   11 2
    17   10   13 1
    18   11   12 1
    19   11   19 1
    20   13   14 2
    21   13   20 1
@<TRIPOS>MOLECULE
ZINC50105683
   43    44     0     0     0
SMALL
USER_CHARGES

@<TRIPOS>ATOM
      1 C1          0.8420   -0.0632    0.5229 C.3       1 <0>        -0.1877
      2 C2         -0.3709    0.2734   -0.3470 C.3       1 <0>         0.0187
      3 C3         -0.0155    0.0644   -1.8204 C.3       1 <0>        -0.1820
      4 N1         -1.4920   -0.6038    0.0155 N.4       1 <0>        -0.3797
      5 C4         -2.6325   -0.3319   -0.8695 C.3       1 <0>        -0.0128
      6 C5         -3.1329    1.0945   -0.6330 C.3       1 <0>        -0.1501
      7 C6         -4.3996    1.3338   -1.4570 C.3       1 <0>         0.0804
      8 O1         -4.8669    2.6660   -1.2361 O.3       1 <0>        -0.5707
      9 C7         -1.0828   -2.0071   -0.1302 C.3       1 <0>         0.0657
     10 C8         -0.5573   -2.5165    1.1872 C.2       1 <0>        -0.0028
     11 C9         -1.3883   -3.1627    2.0477 C.2       1 <0>        -0.1838
     12 S1         -0.2602   -3.5226    3.3880 S.3       1 <0>         0.0887
     13 C10         1.1907   -2.7751    2.6579 C.2       1 <0>         0.1813
     14 N2          0.7042   -2.3420    1.5033 N.2       1 <0>        -0.4967
     15 C11         2.5647   -2.6727    3.1948 C.ar      1 <0>        -0.0419
     16 C12         3.5606   -2.0345    2.4544 C.ar      1 <0>        -0.0650
     17 C13         4.8406   -1.9424    2.9611 C.ar      1 <0>        -0.1202
     18 C14         5.1377   -2.4813    4.2002 C.ar      1 <0>        -0.0835
     19 C15         4.1550   -3.1156    4.9391 C.ar      1 <0>        -0.1144
     20 C16         2.8695   -3.2087    4.4467 C.ar      1 <0>        -0.0845
     21 H1          1.6218    0.6814    0.3627 H         1 <0>         0.0910
     22 H2          0.5480   -0.0615    1.5725 H         1 <0>         0.0672
     23 H3          1.2202   -1.0492    0.2531 H         1 <0>         0.1224
     24 H4         -0.6562    1.3130   -0.1860 H         1 <0>         0.1329
     25 H5          0.1678   -0.9944   -2.0033 H         1 <0>         0.0814
     26 H6         -0.8420    0.4032   -2.4451 H         1 <0>         0.0805
     27 H7          0.8808    0.6354   -2.0625 H         1 <0>         0.1058
     28 H8         -2.3202   -0.4398   -1.9082 H         1 <0>         0.1371
     29 H9         -3.4346   -1.0384   -0.6560 H         1 <0>         0.1329
     30 H10        -3.3567    1.2303    0.4251 H         1 <0>         0.0921
     31 H11        -2.3631    1.8044   -0.9356 H         1 <0>         0.0951
     32 H12        -4.1758    1.1980   -2.5151 H         1 <0>         0.0568
     33 H13        -5.1694    0.6239   -1.1545 H         1 <0>         0.0563
     34 H14        -5.6692    2.8881   -1.7282 H         1 <0>         0.3968
     35 H15        -1.9409   -2.6060   -0.4352 H         1 <0>         0.1432
     36 H16        -0.3010   -2.0810   -0.8862 H         1 <0>         0.1479
     37 H17        -2.4386   -3.3943    1.9493 H         1 <0>         0.2085
     38 H18         3.3301   -1.6141    1.4867 H         1 <0>         0.1337
     39 H19         5.6123   -1.4487    2.3890 H         1 <0>         0.1360
     40 H20         6.1413   -2.4068    4.5922 H         1 <0>         0.1354
     41 H21         4.3935   -3.5346    5.9055 H         1 <0>         0.1377
     42 H22         2.1020   -3.6996    5.0267 H         1 <0>         0.1281
     43 H23        -1.7599   -0.4292    0.9726 H         1 <0>         0.4218
@<TRIPOS>BOND
     1    1    2 1
     2    1   21 1
     3    1   22 1
     4    1   23 1
     5    2    3 1
     6    2    4 1
     7    2   24 1
     8    3   25 1
     9    3   26 1
    10    3   27 1
    11    4    5 1
    12    4    9 1
    13    4   43 1
    14    5    6 1
    15    5   28 1
    16    5   29 1
    17    6    7 1
    18    6   30 1
    19    6   31 1
    20    7    8 1
    21    7   32 1
    22    7   33 1
    23    8   34 1
    24    9   10 1
    25    9   35 1
    26    9   36 1
    27   10   14 1
    28   10   11 2
    29   11   12 1
    30   11   37 1
    31   12   13 1
    32   13   14 2
    33   13   15 1
    34   15   20 ar
    35   15   16 ar
    36   16   17 ar
    37   16   38 1
    38   17   18 ar
    39   17   39 1
    40   18   19 ar
    41   18   40 1
    42   19   20 ar
    43   19   41 1
    44   20   42 1
@<TRIPOS>MOLECULE
ZINC76784241
   36    37     0     0     0
SMALL
USER_CHARGES

@<TRIPOS>ATOM
      1 C1         -0.0187    1.5258    0.0104 C.3       1 <0>        -0.1560
      2 C2          0.0021   -0.0041    0.0020 C.3       1 <0>        -0.1500
      3 C3          0.7182   -0.4975   -1.2568 C.3       1 <0>        -0.0156
      4 N1          0.7381   -1.9663   -1.2649 N.4       1 <0>        -0.5002
      5 C4          1.4257   -2.4401   -2.4735 C.3       1 <0>         0.1169
      6 H1          0.9519   -2.0070   -3.3544 H         1 <0>         0.1502
      7 C5          2.8948   -2.0156   -2.4239 C.3       1 <0>        -0.1796
      8 C6          1.3392   -3.9429   -2.5442 C.2       1 <0>         0.0034
      9 C7          1.4314   -4.5746   -3.7446 C.2       1 <0>        -0.1797
     10 S1          1.2681   -6.2805   -3.2331 S.3       1 <0>         0.0980
     11 C8          1.0952   -5.9669   -1.4813 C.2       1 <0>         0.1870
     12 N2          1.1800   -4.6444   -1.4467 N.2       1 <0>        -0.5363
     13 C9          0.9124   -6.9250   -0.3700 C.ar      1 <0>        -0.0420
     14 C10         0.7911   -6.4625    0.9410 C.ar      1 <0>        -0.0665
     15 C11         0.6208   -7.3617    1.9735 C.ar      1 <0>        -0.1203
     16 C12         0.5707   -8.7192    1.7113 C.ar      1 <0>        -0.0833
     17 C13         0.6908   -9.1842    0.4139 C.ar      1 <0>        -0.1132
     18 C14         0.8548   -8.2952   -0.6283 C.ar      1 <0>        -0.0836
     19 H2          1.0039    1.9031    0.0027 H         1 <0>         0.0671
     20 H3         -0.5459    1.8868   -0.8726 H         1 <0>         0.0670
     21 H4         -0.5289    1.8773    0.9072 H         1 <0>         0.0776
     22 H5          0.5293   -0.3651    0.8851 H         1 <0>         0.0865
     23 H6         -1.0205   -0.3814    0.0098 H         1 <0>         0.0860
     24 H7          0.1910   -0.1364   -2.1398 H         1 <0>         0.1317
     25 H8          1.7408   -0.1202   -1.2645 H         1 <0>         0.1334
     26 H9          1.2261   -2.3006   -0.4474 H         1 <0>         0.4326
     27 H10         3.4050   -2.3671   -3.3207 H         1 <0>         0.1066
     28 H11         2.9574   -0.9286   -2.3728 H         1 <0>         0.0891
     29 H12         3.3686   -2.4487   -1.5430 H         1 <0>         0.0840
     30 H13         1.5658   -4.1608   -4.7331 H         1 <0>         0.2096
     31 H14         0.8308   -5.4031    1.1471 H         1 <0>         0.1308
     32 H15         0.5268   -7.0051    2.9886 H         1 <0>         0.1360
     33 H16         0.4376   -9.4190    2.5231 H         1 <0>         0.1359
     34 H17         0.6512  -10.2452    0.2159 H         1 <0>         0.1386
     35 H18         0.9433   -8.6591   -1.6413 H         1 <0>         0.1291
     36 H19        -0.2085   -2.3156   -1.2577 H         1 <0>         0.4292
@<TRIPOS>BOND
     1    1    2 1
     2    1   19 1
     3    1   20 1
     4    1   21 1
     5    2    3 1
     6    2   22 1
     7    2   23 1
     8    3    4 1
     9    3   24 1
    10    3   25 1
    11    4    5 1
    12    4   26 1
    13    4   36 1
    14    5    6 1
    15    5    7 1
    16    5    8 1
    17    7   27 1
    18    7   28 1
    19    7   29 1
    20    8   12 1
    21    8    9 2
    22    9   10 1
    23    9   30 1
    24   10   11 1
    25   11   12 2
    26   11   13 1
    27   13   18 ar
    28   13   14 ar
    29   14   15 ar
    30   14   31 1
    31   15   16 ar
    32   15   32 1
    33   16   17 ar
    34   16   33 1
    35   17   18 ar
    36   17   34 1
    37   18   35 1
@<TRIPOS>MOLECULE
ZINC11851494
   34    36     0     0     0
SMALL
USER_CHARGES
[4-[4-(4-fluorophenyl)thiazol-2-yl]phenyl]methanamine
@<TRIPOS>ATOM
      1 C1         -1.2158    1.7509    0.0173 C.ar      1 <0>        -0.0863
      2 C2         -0.0126    1.0758    0.0080 C.ar      1 <0>        -0.0947
      3 C3          1.1854    1.7915    0.0004 C.ar      1 <0>         0.0366
      4 C4          1.1578    3.1866    0.0076 C.ar      1 <0>        -0.0739
      5 C5         -0.0520    3.8496    0.0223 C.ar      1 <0>        -0.0875
      6 C6         -1.2362    3.1342    0.0297 C.ar      1 <0>        -0.1628
      7 C7         -2.5541    3.8649    0.0452 C.3       1 <0>         0.0512
      8 C8          2.4786    1.0744   -0.0148 C.2       1 <0>         0.1155
      9 N1          3.7079    1.5646   -0.0292 N.2       1 <0>        -0.4724
     10 C9          4.7624    0.7714   -0.0382 C.2       1 <0>         0.1007
     11 C10         4.5821   -0.5875   -0.0432 C.2       1 <0>        -0.1726
     12 S1          2.7966   -0.6846   -0.0266 S.3       1 <0>         0.0542
     13 C11         6.1306    1.3451   -0.0484 C.ar      1 <0>        -0.0471
     14 C12         7.2413    0.5033   -0.0573 C.ar      1 <0>        -0.0726
     15 C13         8.5119    1.0413   -0.0707 C.ar      1 <0>        -0.1510
     16 C14         8.6845    2.4159   -0.0660 C.ar      1 <0>         0.1131
     17 C15         7.5832    3.2564   -0.0523 C.ar      1 <0>        -0.1556
     18 C16         6.3089    2.7272   -0.0432 C.ar      1 <0>        -0.0561
     19 F1          9.9303    2.9383   -0.0744 F         1 <0>        -0.1331
     20 H1         -2.1437    1.1982    0.0191 H         1 <0>         0.1411
     21 H2          0.0021   -0.0041    0.0020 H         1 <0>         0.1402
     22 H3          2.0815    3.7462    0.0015 H         1 <0>         0.1482
     23 H4         -0.0748    4.9293    0.0275 H         1 <0>         0.1408
     24 H5         -3.2987    3.2604    0.5630 H         1 <0>         0.1401
     25 H6         -2.4356    4.8170    0.5625 H         1 <0>         0.1432
     26 H7         -3.8773    4.5981   -1.3512 H         1 <0>         0.4406
     27 H8         -2.2924    4.6126   -1.8550 H         1 <0>         0.4372
     28 H9          5.3156   -1.3802   -0.0541 H         1 <0>         0.2090
     29 H10         7.1077   -0.5684   -0.0568 H         1 <0>         0.1362
     30 H11         9.3732    0.3897   -0.0811 H         1 <0>         0.1437
     31 H12         7.7224    4.3274   -0.0483 H         1 <0>         0.1411
     32 H13         5.4510    3.3832   -0.0318 H         1 <0>         0.1405
     33 N2         -2.9973    4.0850   -1.3428 N.4       1 <0>        -0.6464
     34 H14        -3.1348    3.1767   -1.8013 H         1 <0>         0.4390
@<TRIPOS>BOND
     1    1    6 ar
     2    1    2 ar
     3    1   20 1
     4    2    3 ar
     5    2   21 1
     6    3    4 ar
     7    3    8 1
     8    4    5 ar
     9    4   22 1
    10    5    6 ar
    11    5   23 1
    12    6    7 1
    13    7   24 1
    14    7   25 1
    15    7   33 1
    16    8   12 1
    17    8    9 2
    18    9   10 1
    19   10   11 2
    20   10   13 1
    21   11   12 1
    22   11   28 1
    23   13   18 ar
    24   13   14 ar
    25   14   15 ar
    26   14   29 1
    27   15   16 ar
    28   15   30 1
    29   16   17 ar
    30   16   19 1
    31   17   18 ar
    32   17   31 1
    33   18   32 1
    34   26   33 1
    35   27   33 1
    36   33   34 1
@<TRIPOS>MOLECULE
ZINC90290472
   36    38     0     0     0
SMALL
USER_CHARGES

@<TRIPOS>ATOM
      1 C1         -0.0178    1.4648    0.0101 C.3       1 <0>         0.0101
      2 N1          0.0021   -0.0041    0.0020 N.3       1 <0>        -0.5181
      3 C2          0.7062   -0.5275    1.1802 C.3       1 <0>         0.1245
      4 C3          2.1628   -0.1488    1.1043 C.2       1 <0>         0.0601
      5 C4          2.6108    0.9657    1.7413 C.2       1 <0>        -0.2049
      6 S1          4.3473    0.9128    1.3169 S.3       1 <0>         0.0378
      7 C5          4.2871   -0.5837    0.3403 C.2       1 <0>         0.1688
      8 N2          3.0021   -0.8970    0.4277 N.2       1 <0>        -0.4908
      9 C6          5.3781   -1.2858   -0.3693 C.ar      1 <0>        -0.0288
     10 C7          5.1101   -2.4515   -1.0881 C.ar      1 <0>        -0.0682
     11 C8          6.1325   -3.1018   -1.7480 C.ar      1 <0>        -0.1216
     12 C9          7.4211   -2.6008   -1.6977 C.ar      1 <0>        -0.0925
     13 C10         7.6935   -1.4457   -0.9865 C.ar      1 <0>        -0.1155
     14 C11         6.6789   -0.7823   -0.3278 C.ar      1 <0>        -0.0890
     15 C12        -1.3597   -0.5486   -0.0825 C.3       1 <0>         0.0286
     16 C13        -1.4316   -1.9379   -0.7414 C.3       1 <0>         0.0165
     17 N3         -2.6318   -1.4332   -1.4443 N.4       1 <0>        -0.5328
     18 C14        -2.1560   -0.0399   -1.2977 C.3       1 <0>         0.0135
     19 H1          1.0047    1.8421    0.0024 H         1 <0>         0.0860
     20 H2         -0.5450    1.8259   -0.8730 H         1 <0>         0.0746
     21 H3         -0.5280    1.8163    0.9069 H         1 <0>         0.0422
     22 H4          0.2673   -0.1040    2.0837 H         1 <0>         0.0639
     23 H5          0.6139   -1.6133    1.2060 H         1 <0>         0.0959
     24 H6          2.0682    1.6841    2.3379 H         1 <0>         0.1974
     25 H7          4.1047   -2.8440   -1.1275 H         1 <0>         0.1331
     26 H8          5.9264   -4.0040   -2.3046 H         1 <0>         0.1327
     27 H9          8.2180   -3.1137   -2.2157 H         1 <0>         0.1322
     28 H10         8.7016   -1.0600   -0.9509 H         1 <0>         0.1350
     29 H11         6.8918    0.1221    0.2228 H         1 <0>         0.1274
     30 H12        -1.9042   -0.4791    0.8592 H         1 <0>         0.1081
     31 H13        -0.5932   -2.1538   -1.4036 H         1 <0>         0.1612
     32 H14        -1.6406   -2.7461   -0.0405 H         1 <0>         0.1417
     33 H15        -2.6800   -1.7336   -2.4063 H         1 <0>         0.4301
     34 H16        -2.9438    0.6685   -1.0412 H         1 <0>         0.1425
     35 H17        -1.5295    0.2993   -2.1226 H         1 <0>         0.1586
     36 H18        -3.4875   -1.6121   -0.9404 H         1 <0>         0.4400
@<TRIPOS>BOND
     1    1    2 1
     2    1   19 1
     3    1   20 1
     4    1   21 1
     5    2    3 1
     6    2   15 1
     7    3    4 1
     8    3   22 1
     9    3   23 1
    10    4    8 1
    11    4    5 2
    12    5    6 1
    13    5   24 1
    14    6    7 1
    15    7    8 2
    16    7    9 1
    17    9   14 ar
    18    9   10 ar
    19   10   11 ar
    20   10   25 1
    21   11   12 ar
    22   11   26 1
    23   12   13 ar
    24   12   27 1
    25   13   14 ar
    26   13   28 1
    27   14   29 1
    28   15   18 1
    29   15   16 1
    30   15   30 1
    31   16   17 1
    32   16   31 1
    33   16   32 1
    34   17   18 1
    35   17   33 1
    36   17   36 1
    37   18   34 1
    38   18   35 1
@<TRIPOS>MOLECULE
ZINC90292053
   39    41     0     0     0
SMALL
USER_CHARGES

@<TRIPOS>ATOM
      1 C1          0.2163    1.3283   -0.1687 C.3       1 <0>        -0.1528
      2 C2          0.0495   -0.1890   -0.0640 C.3       1 <0>         0.0380
      3 N1         -1.3697   -0.5131    0.1331 N.3       1 <0>        -0.5174
      4 C3         -1.5342   -1.8980    0.5947 C.3       1 <0>         0.1234
      5 C4         -0.9388   -2.0426    1.9716 C.2       1 <0>         0.0560
      6 C5         -1.7306   -1.9304    3.0711 C.2       1 <0>        -0.1904
      7 S1         -0.5280   -2.1820    4.3707 S.3       1 <0>         0.0374
      8 C6          0.8940   -2.4084    3.3106 C.2       1 <0>         0.1719
      9 N2          0.3438   -2.2823    2.1111 N.2       1 <0>        -0.5034
     10 C7          2.3031   -2.6710    3.6738 C.ar      1 <0>        -0.0309
     11 C8          3.2693   -2.8109    2.6768 C.ar      1 <0>        -0.0682
     12 C9          4.5823   -3.0559    3.0224 C.ar      1 <0>        -0.1206
     13 C10         4.9418   -3.1632    4.3541 C.ar      1 <0>        -0.0914
     14 C11         3.9886   -3.0259    5.3474 C.ar      1 <0>        -0.1158
     15 C12         2.6733   -2.7742    5.0153 C.ar      1 <0>        -0.0884
     16 C13        -2.1401   -0.2723   -1.0943 C.3       1 <0>         0.0296
     17 C14        -2.6425    1.1758   -1.2363 C.3       1 <0>         0.0159
     18 N3         -3.9126    0.5838   -1.7113 N.4       1 <0>        -0.5331
     19 C15        -3.6227   -0.6713   -0.9835 C.3       1 <0>         0.0080
     20 H1          1.2772    1.5753   -0.2085 H         1 <0>         0.0704
     21 H2         -0.2742    1.6861   -1.0740 H         1 <0>         0.0468
     22 H3         -0.2352    1.8044    0.7016 H         1 <0>         0.0661
     23 H4          0.4052   -0.6578   -0.9815 H         1 <0>         0.0470
     24 H5          0.6280   -0.5606    0.7818 H         1 <0>         0.1049
     25 H6         -2.5951   -2.1456    0.6298 H         1 <0>         0.0920
     26 H7         -1.0260   -2.5732   -0.0937 H         1 <0>         0.0645
     27 H8         -2.7917   -1.7415    3.1405 H         1 <0>         0.1976
     28 H9          2.9899   -2.7280    1.6368 H         1 <0>         0.1330
     29 H10         5.3311   -3.1644    2.2517 H         1 <0>         0.1334
     30 H11         5.9709   -3.3554    4.6194 H         1 <0>         0.1325
     31 H12         4.2755   -3.1112    6.3850 H         1 <0>         0.1350
     32 H13         1.9311   -2.6620    5.7918 H         1 <0>         0.1274
     33 H14        -1.6477   -0.6572   -1.9873 H         1 <0>         0.1091
     34 H15        -2.7322    1.7046   -0.2874 H         1 <0>         0.1599
     35 H16        -2.1146    1.7512   -1.9969 H         1 <0>         0.1415
     36 H17        -4.7269    1.0642   -1.3589 H         1 <0>         0.4292
     37 H18        -3.8780   -1.5719   -1.5420 H         1 <0>         0.1433
     38 H19        -3.9991   -0.6828    0.0394 H         1 <0>         0.1585
     39 H20        -3.9396    0.4611   -2.7124 H         1 <0>         0.4401
@<TRIPOS>BOND
     1    1    2 1
     2    1   20 1
     3    1   21 1
     4    1   22 1
     5    2    3 1
     6    2   23 1
     7    2   24 1
     8    3    4 1
     9    3   16 1
    10    4    5 1
    11    4   25 1
    12    4   26 1
    13    5    9 1
    14    5    6 2
    15    6    7 1
    16    6   27 1
    17    7    8 1
    18    8    9 2
    19    8   10 1
    20   10   15 ar
    21   10   11 ar
    22   11   12 ar
    23   11   28 1
    24   12   13 ar
    25   12   29 1
    26   13   14 ar
    27   13   30 1
    28   14   15 ar
    29   14   31 1
    30   15   32 1
    31   16   19 1
    32   16   17 1
    33   16   33 1
    34   17   18 1
    35   17   34 1
    36   17   35 1
    37   18   19 1
    38   18   36 1
    39   18   39 1
    40   19   37 1
    41   19   38 1
@<TRIPOS>MOLECULE
ZINC76784243
   36    37     0     0     0
SMALL
USER_CHARGES

@<TRIPOS>ATOM
      1 C1         -0.0187    1.5258    0.0104 C.3       1 <0>        -0.1560
      2 C2          0.0021   -0.0041    0.0020 C.3       1 <0>        -0.1500
      3 C3          0.7182   -0.4975   -1.2568 C.3       1 <0>        -0.0156
      4 N1          0.7381   -1.9663   -1.2649 N.4       1 <0>        -0.5002
      5 C4          1.4257   -2.4401   -2.4735 C.3       1 <0>         0.1168
      6 H1          2.4178   -1.9917   -2.5265 H         1 <0>         0.1502
      7 C5          0.6183   -2.0394   -3.7098 C.3       1 <0>        -0.1795
      8 C6          1.5548   -3.9407   -2.4224 C.2       1 <0>         0.0035
      9 C7          2.5513   -4.5621   -3.1075 C.2       1 <0>        -0.1798
     10 S1          2.2215   -6.2702   -2.6924 S.3       1 <0>         0.0979
     11 C8          0.7965   -5.9708   -1.6548 C.2       1 <0>         0.1871
     12 N2          0.7089   -4.6493   -1.7124 N.2       1 <0>        -0.5364
     13 C9         -0.0524   -6.9366   -0.9246 C.ar      1 <0>        -0.0421
     14 C10        -1.1340   -6.4859   -0.1668 C.ar      1 <0>        -0.0664
     15 C11        -1.9221   -7.3923    0.5121 C.ar      1 <0>        -0.1203
     16 C12        -1.6416   -8.7453    0.4431 C.ar      1 <0>        -0.0832
     17 C13        -0.5705   -9.1986   -0.3061 C.ar      1 <0>        -0.1132
     18 C14         0.2213   -8.3032   -0.9951 C.ar      1 <0>        -0.0836
     19 H2          1.0039    1.9031    0.0027 H         1 <0>         0.0670
     20 H3         -0.5459    1.8868   -0.8726 H         1 <0>         0.0671
     21 H4         -0.5289    1.8773    0.9072 H         1 <0>         0.0776
     22 H5          0.5293   -0.3651    0.8851 H         1 <0>         0.0860
     23 H6         -1.0205   -0.3814    0.0098 H         1 <0>         0.0865
     24 H7          0.1910   -0.1364   -2.1398 H         1 <0>         0.1334
     25 H8          1.7408   -0.1202   -1.2645 H         1 <0>         0.1317
     26 H9          1.2261   -2.3006   -0.4474 H         1 <0>         0.4293
     27 H10         0.5249   -0.9541   -3.7467 H         1 <0>         0.0891
     28 H11         1.1285   -2.3909   -4.6066 H         1 <0>         0.1067
     29 H12        -0.3738   -2.4878   -3.6568 H         1 <0>         0.0840
     30 H13         3.3269   -4.1411   -3.7301 H         1 <0>         0.2096
     31 H14        -1.3535   -5.4299   -0.1116 H         1 <0>         0.1308
     32 H15        -2.7595   -7.0448    1.0990 H         1 <0>         0.1360
     33 H16        -2.2614   -9.4507    0.9767 H         1 <0>         0.1359
     34 H17        -0.3566  -10.2561   -0.3556 H         1 <0>         0.1386
     35 H18         1.0541   -8.6587   -1.5838 H         1 <0>         0.1291
     36 H19        -0.2085   -2.3156   -1.2577 H         1 <0>         0.4326
@<TRIPOS>BOND
     1    1    2 1
     2    1   19 1
     3    1   20 1
     4    1   21 1
     5    2    3 1
     6    2   22 1
     7    2   23 1
     8    3    4 1
     9    3   24 1
    10    3   25 1
    11    4    5 1
    12    4   26 1
    13    4   36 1
    14    5    6 1
    15    5    7 1
    16    5    8 1
    17    7   27 1
    18    7   28 1
    19    7   29 1
    20    8   12 1
    21    8    9 2
    22    9   10 1
    23    9   30 1
    24   10   11 1
    25   11   12 2
    26   11   13 1
    27   13   18 ar
    28   13   14 ar
    29   14   15 ar
    30   14   31 1
    31   15   16 ar
    32   15   32 1
    33   16   17 ar
    34   16   33 1
    35   17   18 ar
    36   17   34 1
    37   18   35 1
@<TRIPOS>MOLECULE
ZINC76784486
   36    37     0     0     0
SMALL
USER_CHARGES

@<TRIPOS>ATOM
      1 C1         -0.0187    1.5258    0.0104 C.3       1 <0>        -0.1880
      2 C2          0.0021   -0.0041    0.0020 C.3       1 <0>        -0.0150
      3 N1         -1.3761   -0.5125    0.0124 N.4       1 <0>        -0.5006
      4 C3         -1.3562   -1.9814    0.0044 C.3       1 <0>         0.1167
      5 H1         -0.7699   -2.3321   -0.8450 H         1 <0>         0.1500
      6 C4         -0.7272   -2.4900    1.3031 C.3       1 <0>        -0.1794
      7 C5         -2.7657   -2.5023   -0.1088 C.2       1 <0>         0.0039
      8 C6         -2.9956   -3.7372   -0.6290 C.2       1 <0>        -0.1810
      9 S1         -4.7790   -3.8149   -0.5186 S.3       1 <0>         0.0949
     10 C7         -5.0228   -2.1986    0.2062 C.2       1 <0>         0.1902
     11 N2         -3.7729   -1.7669    0.2995 N.2       1 <0>        -0.5381
     12 C8         -6.2796   -1.5268    0.6005 C.ar      1 <0>        -0.0503
     13 C9         -6.2462   -0.2447    1.1504 C.ar      1 <0>        -0.0600
     14 C10        -7.4225    0.3766    1.5163 C.ar      1 <0>        -0.1238
     15 C11        -8.6333   -0.2690    1.3395 C.ar      1 <0>        -0.0447
     16 C12        -8.6733   -1.5404    0.7953 C.ar      1 <0>        -0.1168
     17 C13        -7.5047   -2.1700    0.4191 C.ar      1 <0>        -0.0772
     18 C14        -9.9142    0.4155    1.7418 C.3       1 <0>        -0.1281
     19 H2          1.0039    1.9031    0.0027 H         1 <0>         0.1074
     20 H3         -0.5459    1.8868   -0.8726 H         1 <0>         0.0803
     21 H4         -0.5289    1.8773    0.9072 H         1 <0>         0.0808
     22 H5          0.5123   -0.3556   -0.8948 H         1 <0>         0.1311
     23 H6          0.5293   -0.3651    0.8851 H         1 <0>         0.1326
     24 H7         -1.8484   -0.1871    0.8426 H         1 <0>         0.4325
     25 H8         -0.7124   -3.5799    1.2971 H         1 <0>         0.1064
     26 H9          0.2923   -2.1133    1.3849 H         1 <0>         0.0890
     27 H10        -1.3135   -2.1393    2.1524 H         1 <0>         0.0839
     28 H11        -2.2954   -4.4685   -1.0050 H         1 <0>         0.2092
     29 H12        -5.3016    0.2600    1.2896 H         1 <0>         0.1310
     30 H13        -7.3980    1.3688    1.9420 H         1 <0>         0.1355
     31 H14        -9.6217   -2.0391    0.6601 H         1 <0>         0.1380
     32 H15        -7.5376   -3.1604   -0.0104 H         1 <0>         0.1294
     33 H16       -10.3018    0.9861    0.8979 H         1 <0>         0.0816
     34 H17       -10.6475   -0.3331    2.0418 H         1 <0>         0.0754
     35 H18        -9.7197    1.0885    2.5769 H         1 <0>         0.0745
     36 H19        -1.8641   -0.1783   -0.8050 H         1 <0>         0.4291
@<TRIPOS>BOND
     1    1    2 1
     2    1   19 1
     3    1   20 1
     4    1   21 1
     5    2    3 1
     6    2   22 1
     7    2   23 1
     8    3    4 1
     9    3   24 1
    10    3   36 1
    11    4    5 1
    12    4    6 1
    13    4    7 1
    14    6   25 1
    15    6   26 1
    16    6   27 1
    17    7   11 1
    18    7    8 2
    19    8    9 1
    20    8   28 1
    21    9   10 1
    22   10   11 2
    23   10   12 1
    24   12   17 ar
    25   12   13 ar
    26   13   14 ar
    27   13   29 1
    28   14   15 ar
    29   14   30 1
    30   15   16 ar
    31   15   18 1
    32   16   17 ar
    33   16   31 1
    34   17   32 1
    35   18   33 1
    36   18   34 1
    37   18   35 1
@<TRIPOS>MOLECULE
ZINC76784488
   36    37     0     0     0
SMALL
USER_CHARGES

@<TRIPOS>ATOM
      1 C1         -0.0187    1.5258    0.0104 C.3       1 <0>        -0.1880
      2 C2          0.0021   -0.0041    0.0020 C.3       1 <0>        -0.0150
      3 N1         -1.3761   -0.5125    0.0124 N.4       1 <0>        -0.5006
      4 C3         -1.3562   -1.9814    0.0044 C.3       1 <0>         0.1167
      5 H1         -0.7538   -2.3412    0.8385 H         1 <0>         0.1500
      6 C4         -0.7522   -2.4760   -1.3115 C.3       1 <0>        -0.1794
      7 C5         -2.7634   -2.5036    0.1388 C.2       1 <0>         0.0039
      8 C6         -2.9840   -3.7401    0.6594 C.2       1 <0>        -0.1811
      9 S1         -4.7689   -3.8188    0.5774 S.3       1 <0>         0.0949
     10 C7         -5.0254   -2.2009   -0.1392 C.2       1 <0>         0.1903
     11 N2         -3.7782   -1.7636   -0.2413 N.2       1 <0>        -0.5382
     12 C8         -6.2889   -1.5293   -0.5124 C.ar      1 <0>        -0.0503
     13 C9         -6.2644   -0.2507   -1.0707 C.ar      1 <0>        -0.0600
     14 C10        -7.4468    0.3704   -1.4166 C.ar      1 <0>        -0.1238
     15 C11        -8.6549   -0.2716   -1.2106 C.ar      1 <0>        -0.0447
     16 C12        -8.6861   -1.5391   -0.6570 C.ar      1 <0>        -0.1169
     17 C13        -7.5104   -2.1739   -0.3129 C.ar      1 <0>        -0.0772
     18 C14        -9.9426    0.4131   -1.5904 C.3       1 <0>        -0.1281
     19 H2          1.0039    1.9031    0.0027 H         1 <0>         0.1074
     20 H3         -0.5459    1.8868   -0.8726 H         1 <0>         0.0808
     21 H4         -0.5289    1.8773    0.9072 H         1 <0>         0.0803
     22 H5          0.5123   -0.3556   -0.8948 H         1 <0>         0.1326
     23 H6          0.5293   -0.3651    0.8851 H         1 <0>         0.1311
     24 H7         -1.8484   -0.1871    0.8426 H         1 <0>         0.4291
     25 H8          0.2656   -2.0983   -1.4087 H         1 <0>         0.0890
     26 H9         -0.7374   -3.5659   -1.3175 H         1 <0>         0.1064
     27 H10        -1.3545   -2.1162   -2.1457 H         1 <0>         0.0838
     28 H11        -2.2773   -4.4720    1.0217 H         1 <0>         0.2092
     29 H12        -5.3220    0.2518   -1.2314 H         1 <0>         0.1311
     30 H13        -7.4293    1.3600   -1.8489 H         1 <0>         0.1355
     31 H14        -9.6324   -2.0347   -0.4984 H         1 <0>         0.1380
     32 H15        -7.5357   -3.1654    0.1144 H         1 <0>         0.1294
     33 H16       -10.1947    0.1666   -2.6218 H         1 <0>         0.0818
     34 H17       -10.7418    0.0757   -0.9305 H         1 <0>         0.0753
     35 H18        -9.8227    1.4921   -1.4936 H         1 <0>         0.0744
     36 H19        -1.8641   -0.1783   -0.8050 H         1 <0>         0.4324
@<TRIPOS>BOND
     1    1    2 1
     2    1   19 1
     3    1   20 1
     4    1   21 1
     5    2    3 1
     6    2   22 1
     7    2   23 1
     8    3    4 1
     9    3   24 1
    10    3   36 1
    11    4    5 1
    12    4    6 1
    13    4    7 1
    14    6   25 1
    15    6   26 1
    16    6   27 1
    17    7   11 1
    18    7    8 2
    19    8    9 1
    20    8   28 1
    21    9   10 1
    22   10   11 2
    23   10   12 1
    24   12   17 ar
    25   12   13 ar
    26   13   14 ar
    27   13   29 1
    28   14   15 ar
    29   14   30 1
    30   15   16 ar
    31   15   18 1
    32   16   17 ar
    33   16   31 1
    34   17   32 1
    35   18   33 1
    36   18   34 1
    37   18   35 1
@<TRIPOS>MOLECULE
ZINC04207441
   22    23     0     0     0
SMALL
USER_CHARGES
4-(4-methylthiazol-2-yl)phenol
@<TRIPOS>ATOM
      1 C1         -2.4766    1.3880    0.0189 C.3       1 <0>        -0.0850
      2 C2         -1.0702    1.9292    0.0166 C.2       1 <0>         0.0582
      3 C3         -0.0126    1.0758    0.0080 C.2       1 <0>        -0.2035
      4 S1          1.3482    2.2364    0.0012 S.3       1 <0>         0.0075
      5 C4          0.3624    3.7280    0.0179 C.2       1 <0>         0.1590
      6 N1         -0.8646    3.2259    0.0268 N.2       1 <0>        -0.4966
      7 C5          0.7981    5.1405    0.0215 C.ar      1 <0>        -0.0290
      8 C6         -0.1498    6.1652    0.0301 C.ar      1 <0>        -0.0519
      9 C7          0.2605    7.4811    0.0387 C.ar      1 <0>        -0.1463
     10 C8          1.6149    7.7881    0.0276 C.ar      1 <0>         0.1282
     11 C9          2.5609    6.7715    0.0132 C.ar      1 <0>        -0.1438
     12 C10         2.1586    5.4531    0.0104 C.ar      1 <0>        -0.0733
     13 O1          2.0153    9.0862    0.0304 O.3       1 <0>        -0.4973
     14 H1         -2.8119    1.2519    1.0471 H         1 <0>         0.0755
     15 H2         -3.1372    2.0910   -0.4886 H         1 <0>         0.0755
     16 H3         -2.4980    0.4298   -0.5001 H         1 <0>         0.0752
     17 H4          0.0021   -0.0041    0.0020 H         1 <0>         0.2000
     18 H5         -1.2033    5.9272    0.0346 H         1 <0>         0.1412
     19 H6         -0.4722    8.2744    0.0499 H         1 <0>         0.1388
     20 H7          3.6133    7.0142    0.0046 H         1 <0>         0.1390
     21 H8          2.8949    4.6631   -0.0008 H         1 <0>         0.1324
     22 H9          2.1227    9.4666   -0.8521 H         1 <0>         0.3964
@<TRIPOS>BOND
     1    1    2 1
     2    1   14 1
     3    1   15 1
     4    1   16 1
     5    2    6 1
     6    2    3 2
     7    3    4 1
     8    3   17 1
     9    4    5 1
    10    5    6 2
    11    5    7 1
    12    7   12 ar
    13    7    8 ar
    14    8    9 ar
    15    8   18 1
    16    9   10 ar
    17    9   19 1
    18   10   11 ar
    19   10   13 1
    20   11   12 ar
    21   11   20 1
    22   12   21 1
    23   13   22 1
@<TRIPOS>MOLECULE
ZINC94523936
   38    41     0     0     0
SMALL
USER_CHARGES

@<TRIPOS>ATOM
      1 C1         -0.0168    1.3913    0.0097 C.ar      1 <0>        -0.0771
      2 C2          1.1702    2.0943    0.0021 C.ar      1 <0>        -0.1111
      3 C3          2.3776    1.4189   -0.0135 C.ar      1 <0>        -0.0088
      4 C4          2.4032    0.0356   -0.0216 C.ar      1 <0>        -0.1256
      5 C5          1.2232   -0.6793   -0.0137 C.ar      1 <0>        -0.0558
      6 C6          0.0021   -0.0041    0.0020 C.ar      1 <0>        -0.0511
      7 C7         -1.2664   -0.7639    0.0105 C.2       1 <0>         0.1899
      8 N1         -1.4618   -2.0750    0.0109 N.2       1 <0>        -0.5116
      9 C8         -2.6714   -2.5837    0.0192 C.2       1 <0>        -0.0085
     10 C9         -3.7528   -1.7598    0.0276 C.2       1 <0>        -0.1849
     11 S1         -2.9498   -0.1617    0.0311 S.3       1 <0>         0.0900
     12 C10        -2.8615   -4.0787    0.0188 C.3       1 <0>         0.0833
     13 N2         -2.8131   -4.5781   -1.3619 N.4       1 <0>        -0.4782
     14 C11        -2.9984   -6.0354   -1.3622 C.3       1 <0>        -0.0840
     15 C12        -1.8373   -6.8951   -1.8659 C.3       1 <0>        -0.1535
     16 C13        -3.0969   -6.7347   -2.7195 C.3       1 <0>        -0.1541
     17 C14         3.6704    2.1932   -0.0222 C.3       1 <0>        -0.1361
     18 C15         4.9638    1.4063   -0.2427 C.3       1 <0>        -0.1721
     19 C16         4.6367    1.9678    1.1424 C.3       1 <0>        -0.1621
     20 H1         -0.9586    1.9196    0.0260 H         1 <0>         0.1297
     21 H2          1.1570    3.1742    0.0081 H         1 <0>         0.1383
     22 H3          3.3490   -0.4857   -0.0345 H         1 <0>         0.1365
     23 H4          1.2446   -1.7590   -0.0205 H         1 <0>         0.1348
     24 H5         -4.8051   -2.0029    0.0350 H         1 <0>         0.2100
     25 H6         -2.0682   -4.5460    0.6022 H         1 <0>         0.1449
     26 H7         -3.8282   -4.3221    0.4595 H         1 <0>         0.1455
     27 H8         -3.5474   -4.1456   -1.9019 H         1 <0>         0.4266
     28 H9         -3.6023   -6.4327   -0.5464 H         1 <0>         0.1793
     29 H10        -0.9359   -6.3793   -2.1971 H         1 <0>         0.1210
     30 H11        -1.6770   -7.8582   -1.3814 H         1 <0>         0.1344
     31 H12        -3.7653   -7.5923   -2.7965 H         1 <0>         0.1349
     32 H13        -3.0242   -6.1134   -3.6122 H         1 <0>         0.1203
     33 H14         3.6140    3.1975   -0.4422 H         1 <0>         0.1206
     34 H15         4.8797    0.3284   -0.3815 H         1 <0>         0.0996
     35 H16         5.7587    1.8927   -0.8081 H         1 <0>         0.1040
     36 H17         5.2164    2.8237    1.4883 H         1 <0>         0.1043
     37 H18         4.3374    1.2594    1.9149 H         1 <0>         0.0982
     38 H19        -1.9182   -4.3528   -1.7698 H         1 <0>         0.4285
@<TRIPOS>BOND
     1    1    6 ar
     2    1    2 ar
     3    1   20 1
     4    2    3 ar
     5    2   21 1
     6    3    4 ar
     7    3   17 1
     8    4    5 ar
     9    4   22 1
    10    5    6 ar
    11    5   23 1
    12    6    7 1
    13    7   11 1
    14    7    8 2
    15    8    9 1
    16    9   10 2
    17    9   12 1
    18   10   11 1
    19   10   24 1
    20   12   13 1
    21   12   25 1
    22   12   26 1
    23   13   14 1
    24   13   27 1
    25   13   38 1
    26   14   16 1
    27   14   15 1
    28   14   28 1
    29   15   16 1
    30   15   29 1
    31   15   30 1
    32   16   31 1
    33   16   32 1
    34   17   19 1
    35   17   18 1
    36   17   33 1
    37   18   19 1
    38   18   34 1
    39   18   35 1
    40   19   36 1
    41   19   37 1
@<TRIPOS>MOLECULE
ZINC11568395
   26    27     0     0     0
SMALL
USER_CHARGES
(1S)-1-[2-(3-pyridyl)thiazol-4-yl]ethanamine
@<TRIPOS>ATOM
      1 C1         -3.2452    1.9720    1.2075 C.3       1 <0>        -0.1762
      2 C2         -2.4771    1.3887    0.0197 C.3       1 <0>         0.1135
      3 H1         -2.9759    1.6683   -0.9082 H         1 <0>         0.1597
      4 C3         -1.0705    1.9297    0.0166 C.2       1 <0>         0.0413
      5 C4         -0.0126    1.0758    0.0080 C.2       1 <0>        -0.2593
      6 S1          1.3481    2.2365    0.0012 S.3       1 <0>         0.1061
      7 C5          0.3620    3.7279    0.0175 C.2       1 <0>         0.1987
      8 N1         -0.8647    3.2257    0.0263 N.2       1 <0>        -0.4986
      9 C6          0.7976    5.1410    0.0211 C.ar      1 <0>        -0.0999
     10 C7          2.1591    5.4660    0.0106 C.ar      1 <0>        -0.0389
     11 C8          2.5142    6.8033    0.0146 C.ar      1 <0>        -0.1664
     12 C9          1.5220    7.7673    0.0287 C.ar      1 <0>         0.1372
     13 N2          0.2464    7.4314    0.0380 N.ar      1 <0>        -0.4791
     14 C10        -0.1414    6.1727    0.0294 C.ar      1 <0>         0.1641
     15 H2         -2.7463    1.6924    2.1354 H         1 <0>         0.0803
     16 H3         -3.2739    3.0584    1.1234 H         1 <0>         0.1153
     17 H4         -4.2625    1.5807    1.2097 H         1 <0>         0.0886
     18 H5          0.0021   -0.0041    0.0020 H         1 <0>         0.1993
     19 H6          2.9130    4.6928   -0.0001 H         1 <0>         0.1413
     20 H7          3.5550    7.0916    0.0063 H         1 <0>         0.1531
     21 H8          1.7962    8.8119    0.0319 H         1 <0>         0.1715
     22 H9         -1.1954    5.9372    0.0331 H         1 <0>         0.1689
     23 H10        -3.3701   -0.4625    0.1373 H         1 <0>         0.4462
     24 H11        -1.8819   -0.4805   -0.6047 H         1 <0>         0.4380
     25 N3         -2.4271   -0.0777    0.1556 N.4       1 <0>        -0.6440
     26 H12        -1.9842   -0.3189    1.0499 H         1 <0>         0.4392
@<TRIPOS>BOND
     1    1    2 1
     2    1   15 1
     3    1   16 1
     4    1   17 1
     5    2    3 1
     6    2    4 1
     7    2   25 1
     8    4    8 1
     9    4    5 2
    10    5    6 1
    11    5   18 1
    12    6    7 1
    13    7    8 2
    14    7    9 1
    15    9   14 ar
    16    9   10 ar
    17   10   11 ar
    18   10   19 1
    19   11   12 ar
    20   11   20 1
    21   12   13 ar
    22   12   21 1
    23   13   14 ar
    24   14   22 1
    25   23   25 1
    26   24   25 1
    27   25   26 1
@<TRIPOS>MOLECULE
ZINC11568394
   26    27     0     0     0
SMALL
USER_CHARGES
(1R)-1-[2-(3-pyridyl)thiazol-4-yl]ethanamine
@<TRIPOS>ATOM
      1 C1          4.3885   -4.6971   -1.2463 C.3       1 <0>        -0.1754
      2 C2          3.5059   -5.0871   -0.0589 C.3       1 <0>         0.1213
      3 H1          3.2132   -6.1330   -0.1519 H         1 <0>         0.1517
      4 C3          2.2734   -4.2201   -0.0430 C.2       1 <0>        -0.0080
      5 C4          1.0394   -4.7908   -0.0352 C.2       1 <0>        -0.1738
      6 S1          0.0023   -3.3338   -0.0176 S.3       1 <0>         0.0991
      7 C5          1.3219   -2.1273   -0.0225 C.2       1 <0>         0.1839
      8 N1          2.3894   -2.9129   -0.0424 N.2       1 <0>        -0.5105
      9 C6          1.2434   -0.6507   -0.0133 C.ar      1 <0>        -0.0952
     10 C7          0.0021   -0.0041    0.0020 C.ar      1 <0>        -0.0407
     11 C8         -0.0167    1.3794    0.0096 C.ar      1 <0>        -0.1644
     12 C9          1.1804    2.0729    0.0019 C.ar      1 <0>         0.1348
     13 N2          2.3357    1.4366   -0.0125 N.ar      1 <0>        -0.4794
     14 C10         2.4054    0.1214   -0.0203 C.ar      1 <0>         0.1586
     15 H2          4.6812   -3.6513   -1.1533 H         1 <0>         0.0901
     16 H3          5.2799   -5.3242   -1.2578 H         1 <0>         0.0864
     17 H4          3.8331   -4.8380   -2.1735 H         1 <0>         0.1034
     18 H5          0.7623   -5.8346   -0.0387 H         1 <0>         0.2116
     19 H6         -0.9174   -0.5705    0.0074 H         1 <0>         0.1415
     20 H7         -0.9560    1.9124    0.0170 H         1 <0>         0.1529
     21 H8          1.1687    3.1528    0.0075 H         1 <0>         0.1711
     22 H9          3.3703   -0.3636   -0.0324 H         1 <0>         0.1657
     23 H10         5.0509   -5.5153    1.2327 H         1 <0>         0.4396
     24 H11         4.5372   -3.9350    1.3002 H         1 <0>         0.4400
     25 N3          4.2366   -4.9038    1.2076 N.4       1 <0>        -0.6429
     26 H12         3.6169   -5.1388    1.9918 H         1 <0>         0.4386
@<TRIPOS>BOND
     1    1    2 1
     2    1   15 1
     3    1   16 1
     4    1   17 1
     5    2    3 1
     6    2    4 1
     7    2   25 1
     8    4    8 1
     9    4    5 2
    10    5    6 1
    11    5   18 1
    12    6    7 1
    13    7    8 2
    14    7    9 1
    15    9   14 ar
    16    9   10 ar
    17   10   11 ar
    18   10   19 1
    19   11   12 ar
    20   11   20 1
    21   12   13 ar
    22   12   21 1
    23   13   14 ar
    24   14   22 1
    25   23   25 1
    26   24   25 1
    27   25   26 1
@<TRIPOS>MOLECULE
ZINC71081175
   47    48     0     0     0
SMALL
USER_CHARGES

@<TRIPOS>ATOM
      1 C1         -0.0184    1.5028    0.0103 C.3       1 <0>        -0.1246
      2 C2          0.0021   -0.0041    0.0020 C.ar      1 <0>        -0.0552
      3 C3          0.0057   -0.6862   -1.2016 C.ar      1 <0>        -0.1182
      4 C4          0.0249   -2.0657   -1.2161 C.ar      1 <0>        -0.0831
      5 C5          0.0405   -2.7729   -0.0132 C.ar      1 <0>        -0.0367
      6 C6          0.0368   -2.0788    1.1974 C.ar      1 <0>        -0.0625
      7 C7          0.0229   -0.6992    1.1980 C.ar      1 <0>        -0.1241
      8 C8          0.0606   -4.2514   -0.0214 C.2       1 <0>         0.1702
      9 N1          0.0718   -5.0983    0.9984 N.2       1 <0>        -0.4917
     10 C9          0.0895   -6.3962    0.8061 C.2       1 <0>         0.0541
     11 C10         0.0966   -6.8936   -0.4593 C.2       1 <0>        -0.2053
     12 S1          0.0683   -5.3786   -1.4093 S.3       1 <0>         0.0344
     13 C11         0.1024   -7.3339    1.9857 C.3       1 <0>         0.1341
     14 N2          1.4849   -7.5249    2.4443 N.3       1 <0>        -0.6981
     15 C12         1.5365   -8.4354    3.5960 C.3       1 <0>         0.0340
     16 C13         2.9890   -8.6091    4.0441 C.3       1 <0>         0.0605
     17 C14         3.0428   -9.5575    5.2435 C.3       1 <0>        -0.1783
     18 C15         3.8110   -9.1944    2.8940 C.3       1 <0>        -0.1820
     19 N3          3.5429   -7.3035    4.4269 N.4       1 <0>        -0.3743
     20 C16         2.7537   -6.7416    5.5312 C.3       1 <0>        -0.0524
     21 C17         4.9375   -7.4703    4.8571 C.3       1 <0>        -0.0575
     22 H1          1.0042    1.8801    0.0026 H         1 <0>         0.0781
     23 H2         -0.5455    1.8639   -0.8728 H         1 <0>         0.0731
     24 H3         -0.5286    1.8543    0.9071 H         1 <0>         0.0723
     25 H4         -0.0068   -0.1377   -2.1319 H         1 <0>         0.1346
     26 H5          0.0273   -2.5970   -2.1564 H         1 <0>         0.1276
     27 H6          0.0485   -2.6203    2.1317 H         1 <0>         0.1334
     28 H7          0.0244   -0.1607    2.1343 H         1 <0>         0.1324
     29 H8          0.1111   -7.9193   -0.7971 H         1 <0>         0.1976
     30 H9         -0.4931   -6.9093    2.7939 H         1 <0>         0.0959
     31 H10        -0.3185   -8.2951    1.6905 H         1 <0>         0.0602
     32 H11         2.0721   -7.8571    1.6941 H         1 <0>         0.3491
     33 H12         0.9509   -8.0185    4.4153 H         1 <0>         0.1021
     34 H13         1.1255   -9.4042    3.3119 H         1 <0>         0.0797
     35 H14         2.6318  -10.5262    4.9594 H         1 <0>         0.1039
     36 H15         4.0776   -9.6812    5.5627 H         1 <0>         0.0865
     37 H16         2.4572   -9.1405    6.0629 H         1 <0>         0.0845
     38 H17         3.7727   -8.5188    2.0395 H         1 <0>         0.0823
     39 H18         4.8459   -9.3182    3.2132 H         1 <0>         0.0870
     40 H19         3.4001  -10.1632    2.6099 H         1 <0>         0.1036
     41 H20         2.7920   -7.4172    6.3857 H         1 <0>         0.1207
     42 H21         3.1646   -5.7728    5.8152 H         1 <0>         0.1231
     43 H22         1.7188   -6.6178    5.2119 H         1 <0>         0.1261
     44 H23         5.5231   -7.8873    4.0378 H         1 <0>         0.1231
     45 H24         5.3485   -6.5015    5.1412 H         1 <0>         0.1243
     46 H25         4.9758   -8.1459    5.7116 H         1 <0>         0.1232
     47 H26         3.5074   -6.6781    3.6359 H         1 <0>         0.4323
@<TRIPOS>BOND
     1    1    2 1
     2    1   22 1
     3    1   23 1
     4    1   24 1
     5    2    7 ar
     6    2    3 ar
     7    3    4 ar
     8    3   25 1
     9    4    5 ar
    10    4   26 1
    11    5    6 ar
    12    5    8 1
    13    6    7 ar
    14    6   27 1
    15    7   28 1
    16    8   12 1
    17    8    9 2
    18    9   10 1
    19   10   11 2
    20   10   13 1
    21   11   12 1
    22   11   29 1
    23   13   14 1
    24   13   30 1
    25   13   31 1
    26   14   15 1
    27   14   32 1
    28   15   16 1
    29   15   33 1
    30   15   34 1
    31   16   17 1
    32   16   18 1
    33   16   19 1
    34   17   35 1
    35   17   36 1
    36   17   37 1
    37   18   38 1
    38   18   39 1
    39   18   40 1
    40   19   20 1
    41   19   21 1
    42   19   47 1
    43   20   41 1
    44   20   42 1
    45   20   43 1
    46   21   44 1
    47   21   45 1
    48   21   46 1
@<TRIPOS>MOLECULE
ZINC94523929
   37    39     0     0     0
SMALL
USER_CHARGES

@<TRIPOS>ATOM
      1 C1         -0.0187    1.5258    0.0104 C.3       1 <0>        -0.1900
      2 C2          0.0021   -0.0041    0.0020 C.3       1 <0>        -0.0095
      3 N1          0.7126   -0.4907    1.1921 N.4       1 <0>        -0.5089
      4 C3          0.7325   -1.9595    1.1840 C.3       1 <0>         0.0781
      5 C4          1.4614   -2.4588    2.4049 C.2       1 <0>        -0.0088
      6 C5          0.7647   -2.8029    3.5207 C.2       1 <0>        -0.1849
      7 S1          2.0991   -3.3016    4.6020 S.3       1 <0>         0.0921
      8 C6          3.4352   -2.9982    3.4531 C.2       1 <0>         0.1883
      9 N2          2.7690   -2.5672    2.3912 N.2       1 <0>        -0.5097
     10 C7          4.8907   -3.1833    3.6364 C.ar      1 <0>        -0.0383
     11 C8          5.7724   -2.8760    2.5990 C.ar      1 <0>        -0.0690
     12 C9          7.1291   -3.0511    2.7764 C.ar      1 <0>        -0.1138
     13 C10         7.6165   -3.5302    3.9796 C.ar      1 <0>        -0.0875
     14 C11         6.7480   -3.8371    5.0115 C.ar      1 <0>        -0.0417
     15 C12         5.3891   -3.6606    4.8491 C.ar      1 <0>        -0.0794
     16 C13         7.2875   -4.3593    6.3182 C.3       1 <0>        -0.1314
     17 C14         8.8046   -4.3378    6.5151 C.3       1 <0>        -0.1720
     18 C15         8.0821   -5.6663    6.2825 C.3       1 <0>        -0.1646
     19 H1          1.0039    1.9031    0.0027 H         1 <0>         0.0806
     20 H2         -0.5459    1.8868   -0.8726 H         1 <0>         0.1081
     21 H3         -0.5289    1.8773    0.9072 H         1 <0>         0.0804
     22 H4         -1.0205   -0.3814    0.0098 H         1 <0>         0.1324
     23 H5          0.5123   -0.3556   -0.8948 H         1 <0>         0.1325
     24 H6          1.6592   -0.1414    1.1850 H         1 <0>         0.4309
     25 H7         -0.2901   -2.3368    1.1918 H         1 <0>         0.1455
     26 H8          1.2427   -2.3111    0.2873 H         1 <0>         0.1447
     27 H9         -0.2995   -2.7808    3.7034 H         1 <0>         0.2100
     28 H10         5.3932   -2.5023    1.6594 H         1 <0>         0.1345
     29 H11         7.8124   -2.8140    1.9743 H         1 <0>         0.1374
     30 H12         8.6796   -3.6655    4.1134 H         1 <0>         0.1357
     31 H13         4.7124   -3.8960    5.6572 H         1 <0>         0.1287
     32 H14         6.6635   -4.1735    7.1923 H         1 <0>         0.1175
     33 H15         9.4125   -3.9460    5.6996 H         1 <0>         0.1006
     34 H16         9.1790   -4.1376    7.5190 H         1 <0>         0.1037
     35 H17         7.9812   -6.3401    7.1333 H         1 <0>         0.1032
     36 H18         8.2147   -6.1484    5.3139 H         1 <0>         0.0984
     37 H19         0.2403   -0.1653    2.0223 H         1 <0>         0.4260
@<TRIPOS>BOND
     1    1    2 1
     2    1   19 1
     3    1   20 1
     4    1   21 1
     5    2    3 1
     6    2   22 1
     7    2   23 1
     8    3    4 1
     9    3   24 1
    10    3   37 1
    11    4    5 1
    12    4   25 1
    13    4   26 1
    14    5    9 1
    15    5    6 2
    16    6    7 1
    17    6   27 1
    18    7    8 1
    19    8    9 2
    20    8   10 1
    21   10   15 ar
    22   10   11 ar
    23   11   12 ar
    24   11   28 1
    25   12   13 ar
    26   12   29 1
    27   13   14 ar
    28   13   30 1
    29   14   15 ar
    30   14   16 1
    31   15   31 1
    32   16   18 1
    33   16   17 1
    34   16   32 1
    35   17   18 1
    36   17   33 1
    37   17   34 1
    38   18   35 1
    39   18   36 1
@<TRIPOS>MOLECULE
ZINC32642474
   36    38     0     0     0
SMALL
USER_CHARGES
N-methyl-N-[(2-phenylthiazol-4-yl)methyl]aniline
@<TRIPOS>ATOM
      1 C1         -0.0127    1.0858    0.0080 C.3       1 <0>         0.0878
      2 N1         -0.6984    1.5583    1.2133 N.pl3     1 <0>        -0.6222
      3 C2          0.0634    1.8061    2.4399 C.3       1 <0>         0.1921
      4 C3          0.5393    3.2358    2.4555 C.2       1 <0>         0.0386
      5 C4         -0.1861    4.1880    3.1003 C.2       1 <0>        -0.1856
      6 S1          0.8223    5.6334    2.7959 S.3       1 <0>         0.0142
      7 C5          2.0962    4.8139    1.8459 C.2       1 <0>         0.1559
      8 N2          1.6573    3.5630    1.8514 N.2       1 <0>        -0.4870
      9 C6          3.3141    5.3784    1.2257 C.ar      1 <0>        -0.0187
     10 C7          4.1907    4.5507    0.5231 C.ar      1 <0>        -0.0702
     11 C8          5.3229    5.0845   -0.0572 C.ar      1 <0>        -0.1205
     12 C9          5.5955    6.4353    0.0656 C.ar      1 <0>        -0.0992
     13 C10         4.7329    7.2605    0.7650 C.ar      1 <0>        -0.1176
     14 C11         3.5947    6.7401    1.3456 C.ar      1 <0>        -0.0921
     15 C12        -2.0785    1.7725    1.1931 C.ar      1 <0>         0.2171
     16 C13        -2.7311    2.2149    2.3367 C.ar      1 <0>        -0.2013
     17 C14        -4.0951    2.4303    2.3118 C.ar      1 <0>        -0.0718
     18 C15        -4.8126    2.1959    1.1532 C.ar      1 <0>        -0.1798
     19 C16        -4.1669    1.7504    0.0144 C.ar      1 <0>        -0.0709
     20 C17        -2.8023    1.5380    0.0309 C.ar      1 <0>        -0.1998
     21 H1         -0.7441    0.9581   -0.8037 H         1 <0>         0.0777
     22 H2          0.4747    0.1221    0.2174 H         1 <0>         0.0566
     23 H3          0.7461    1.8224   -0.2947 H         1 <0>         0.0578
     24 H4         -0.5794    1.6241    3.3138 H         1 <0>         0.0943
     25 H5          0.9308    1.1305    2.4757 H         1 <0>         0.0927
     26 H6         -1.1138    4.0967    3.6456 H         1 <0>         0.1979
     27 H7          3.9813    3.4952    0.4303 H         1 <0>         0.1348
     28 H8          6.0001    4.4457   -0.6048 H         1 <0>         0.1316
     29 H9          6.4854    6.8475   -0.3867 H         1 <0>         0.1293
     30 H10         4.9513    8.3142    0.8570 H         1 <0>         0.1320
     31 H11         2.9221    7.3853    1.8912 H         1 <0>         0.1265
     32 H12        -2.1720    2.3939    3.2432 H         1 <0>         0.1186
     33 H13        -4.6025    2.7782    3.1995 H         1 <0>         0.1201
     34 H14        -5.8797    2.3615    1.1375 H         1 <0>         0.1176
     35 H15        -4.7302    1.5687   -0.8889 H         1 <0>         0.1202
     36 H16        -2.2987    1.1897   -0.8587 H         1 <0>         0.1232
@<TRIPOS>BOND
     1    1    2 1
     2    1   21 1
     3    1   22 1
     4    1   23 1
     5    2    3 1
     6    2   15 1
     7    3    4 1
     8    3   24 1
     9    3   25 1
    10    4    8 1
    11    4    5 2
    12    5    6 1
    13    5   26 1
    14    6    7 1
    15    7    8 2
    16    7    9 1
    17    9   14 ar
    18    9   10 ar
    19   10   11 ar
    20   10   27 1
    21   11   12 ar
    22   11   28 1
    23   12   13 ar
    24   12   29 1
    25   13   14 ar
    26   13   30 1
    27   14   31 1
    28   15   20 ar
    29   15   16 ar
    30   16   17 ar
    31   16   32 1
    32   17   18 ar
    33   17   33 1
    34   18   19 ar
    35   18   34 1
    36   19   20 ar
    37   19   35 1
    38   20   36 1
@<TRIPOS>MOLECULE
ZINC64635372
   35    36     0     0     0
SMALL
USER_CHARGES

@<TRIPOS>ATOM
      1 C1         -0.0178    1.4648    0.0101 C.3       1 <0>         0.0186
      2 N1          0.0021   -0.0041    0.0020 N.3       1 <0>        -0.5340
      3 C2          0.7062   -0.5275    1.1802 C.3       1 <0>         0.0517
      4 C3          2.1851   -0.1430    1.1032 C.3       1 <0>        -0.1646
      5 C4          2.9184   -0.6882    2.3303 C.3       1 <0>         0.4543
      6 F1          2.8000   -2.0817    2.3634 F         1 <0>        -0.1828
      7 F2          4.2707   -0.3366    2.2598 F         1 <0>        -0.1826
      8 F3          2.3551   -0.1446    3.4898 F         1 <0>        -0.1843
      9 C5         -1.3597   -0.5486   -0.0825 C.3       1 <0>         0.1256
     10 C6         -1.9618   -0.1908   -1.4168 C.2       1 <0>         0.0618
     11 C7         -1.8996   -1.0722   -2.4502 C.2       1 <0>        -0.1774
     12 S1         -2.7425   -0.1446   -3.7261 S.3       1 <0>         0.0137
     13 C8         -3.0846    1.3116   -2.7464 C.2       1 <0>         0.1563
     14 N2         -2.5518    0.9696   -1.5818 N.2       1 <0>        -0.4923
     15 C9         -3.7795    2.5590   -3.1304 C.ar      1 <0>        -0.0189
     16 C10        -3.9363    3.5883   -2.2013 C.ar      1 <0>        -0.0706
     17 C11        -4.5857    4.7497   -2.5659 C.ar      1 <0>        -0.1205
     18 C12        -5.0813    4.8949   -3.8494 C.ar      1 <0>        -0.0990
     19 C13        -4.9296    3.8780   -4.7752 C.ar      1 <0>        -0.1176
     20 C14        -4.2762    2.7143   -4.4252 C.ar      1 <0>        -0.0918
     21 H1          1.0047    1.8421    0.0024 H         1 <0>         0.0667
     22 H2         -0.5450    1.8259   -0.8730 H         1 <0>         0.0799
     23 H3         -0.5280    1.8163    0.9069 H         1 <0>         0.0321
     24 H4          0.2673   -0.1040    2.0837 H         1 <0>         0.0517
     25 H5          0.6139   -1.6133    1.2060 H         1 <0>         0.0903
     26 H6          2.6240   -0.5665    0.1998 H         1 <0>         0.1193
     27 H7          2.2773    0.9428    1.0774 H         1 <0>         0.1102
     28 H8         -1.3244   -1.6331    0.0212 H         1 <0>         0.0938
     29 H9         -1.9698   -0.1268    0.7163 H         1 <0>         0.0560
     30 H10        -1.4622   -2.0588   -2.4898 H         1 <0>         0.2004
     31 H11        -3.5505    3.4759   -1.1988 H         1 <0>         0.1344
     32 H12        -4.7077    5.5470   -1.8477 H         1 <0>         0.1314
     33 H13        -5.5892    5.8058   -4.1298 H         1 <0>         0.1292
     34 H14        -5.3190    3.9974   -5.7754 H         1 <0>         0.1320
     35 H15        -4.1538    1.9233   -5.1503 H         1 <0>         0.1269
@<TRIPOS>BOND
     1    1    2 1
     2    1   21 1
     3    1   22 1
     4    1   23 1
     5    2    3 1
     6    2    9 1
     7    3    4 1
     8    3   24 1
     9    3   25 1
    10    4    5 1
    11    4   26 1
    12    4   27 1
    13    5    6 1
    14    5    7 1
    15    5    8 1
    16    9   10 1
    17    9   28 1
    18    9   29 1
    19   10   14 1
    20   10   11 2
    21   11   12 1
    22   11   30 1
    23   12   13 1
    24   13   14 2
    25   13   15 1
    26   15   20 ar
    27   15   16 ar
    28   16   17 ar
    29   16   31 1
    30   17   18 ar
    31   17   32 1
    32   18   19 ar
    33   18   33 1
    34   19   20 ar
    35   19   34 1
    36   20   35 1
@<TRIPOS>MOLECULE
ZINC64635372
   36    37     0     0     0
SMALL
USER_CHARGES

@<TRIPOS>ATOM
      1 C1         -0.0178    1.4648    0.0101 C.3       1 <0>        -0.0533
      2 N1          0.0021   -0.0041    0.0020 N.4       1 <0>        -0.3808
      3 C2          0.7126   -0.4907    1.1921 C.3       1 <0>        -0.0121
      4 C3          2.1805   -0.0656    1.1191 C.3       1 <0>        -0.2026
      5 C4          2.9205   -0.5724    2.3586 C.3       1 <0>         0.4666
      6 F1          2.8413   -1.9682    2.4108 F         1 <0>        -0.1745
      7 F2          4.2628   -0.1837    2.2919 F         1 <0>        -0.1658
      8 F3          2.3341   -0.0288    3.5066 F         1 <0>        -0.1742
      9 C5         -1.3761   -0.5125    0.0124 C.3       1 <0>         0.0759
     10 C6         -2.0674   -0.1162   -1.2666 C.2       1 <0>        -0.0048
     11 C7         -2.1067   -0.9803   -2.3155 C.2       1 <0>        -0.1833
     12 S1         -3.0185   -0.0093   -3.5090 S.3       1 <0>         0.0939
     13 C8         -3.2471    1.4374   -2.4834 C.2       1 <0>         0.1869
     14 N2         -2.6373    1.0615   -1.3680 N.2       1 <0>        -0.5095
     15 C9         -3.9358    2.7085   -2.7939 C.ar      1 <0>        -0.0447
     16 C10        -3.9948    3.7248   -1.8393 C.ar      1 <0>        -0.0638
     17 C11        -4.6390    4.9084   -2.1353 C.ar      1 <0>        -0.1204
     18 C12        -5.2259    5.0888   -3.3751 C.ar      1 <0>        -0.0822
     19 C13        -5.1713    4.0850   -4.3256 C.ar      1 <0>        -0.1145
     20 C14        -4.5245    2.8992   -4.0446 C.ar      1 <0>        -0.0837
     21 H1          1.0047    1.8421    0.0024 H         1 <0>         0.1214
     22 H2         -0.5450    1.8259   -0.8730 H         1 <0>         0.1298
     23 H3         -0.5280    1.8163    0.9069 H         1 <0>         0.1290
     24 H4          0.2557   -0.0671    2.0865 H         1 <0>         0.1469
     25 H5          0.6508   -1.5782    1.2328 H         1 <0>         0.1470
     26 H6          2.6374   -0.4891    0.2247 H         1 <0>         0.1353
     27 H7          2.2422    1.0219    1.0784 H         1 <0>         0.1352
     28 H8         -1.3618   -1.5992    0.0961 H         1 <0>         0.1471
     29 H9         -1.9129   -0.0898    0.8617 H         1 <0>         0.1464
     30 H10        -1.6997   -1.9768   -2.4037 H         1 <0>         0.2103
     31 H11        -3.5376    3.5849   -0.8709 H         1 <0>         0.1341
     32 H12        -4.6854    5.6957   -1.3975 H         1 <0>         0.1365
     33 H13        -5.7293    6.0171   -3.6017 H         1 <0>         0.1360
     34 H14        -5.6318    4.2319   -5.2915 H         1 <0>         0.1383
     35 H15        -4.4781    2.1184   -4.7893 H         1 <0>         0.1284
     36 H16         0.4743   -0.3295   -0.8281 H         1 <0>         0.4253
@<TRIPOS>BOND
     1    1    2 1
     2    1   21 1
     3    1   22 1
     4    1   23 1
     5    2    3 1
     6    2    9 1
     7    2   36 1
     8    3    4 1
     9    3   24 1
    10    3   25 1
    11    4    5 1
    12    4   26 1
    13    4   27 1
    14    5    6 1
    15    5    7 1
    16    5    8 1
    17    9   10 1
    18    9   28 1
    19    9   29 1
    20   10   14 1
    21   10   11 2
    22   11   12 1
    23   11   30 1
    24   12   13 1
    25   13   14 2
    26   13   15 1
    27   15   20 ar
    28   15   16 ar
    29   16   17 ar
    30   16   31 1
    31   17   18 ar
    32   17   32 1
    33   18   19 ar
    34   18   33 1
    35   19   20 ar
    36   19   34 1
    37   20   35 1
@<TRIPOS>MOLECULE
ZINC41010138
   42    43     0     0     0
SMALL
USER_CHARGES

@<TRIPOS>ATOM
      1 C1          0.3015    1.4667    0.3557 C.3       1 <0>        -0.1265
      2 C2          0.1556   -0.0214    0.1673 C.ar      1 <0>        -0.0375
      3 C3         -0.8066   -0.7147    0.8797 C.ar      1 <0>        -0.1307
      4 C4         -0.9456   -2.0771    0.7115 C.ar      1 <0>        -0.0204
      5 C5         -0.1130   -2.7555   -0.1795 C.ar      1 <0>        -0.0600
      6 C6          0.8555   -2.0503   -0.8950 C.ar      1 <0>        -0.0364
      7 C7          0.9807   -0.6873   -0.7215 C.ar      1 <0>        -0.1285
      8 C8          1.7592   -2.7750   -1.8589 C.3       1 <0>        -0.1280
      9 C9         -0.2562   -4.2156   -0.3643 C.2       1 <0>         0.1991
     10 N1         -0.3400   -5.1748    0.5469 N.2       1 <0>        -0.5021
     11 C10        -0.4653   -6.4343    0.2008 C.2       1 <0>        -0.0125
     12 C11        -0.5112   -6.7741   -1.1149 C.2       1 <0>        -0.1862
     13 S1         -0.3707   -5.1622   -1.8769 S.3       1 <0>         0.0875
     14 C12        -0.5577   -7.5025    1.2598 C.3       1 <0>         0.0744
     15 N2          0.7946   -7.8975    1.6761 N.4       1 <0>        -0.5067
     16 C13         0.7046   -8.9388    2.7084 C.3       1 <0>         0.0244
     17 C14         2.1091   -9.4386    3.0525 C.3       1 <0>        -0.1842
     18 C15         0.0484   -8.3580    3.9627 C.3       1 <0>        -0.1854
     19 C16        -1.9939   -2.8308    1.4887 C.3       1 <0>        -0.1300
     20 H1         -0.3437    1.9874   -0.3519 H         1 <0>         0.0813
     21 H2          0.0155    1.7339    1.3729 H         1 <0>         0.0741
     22 H3          1.3383    1.7550    0.1821 H         1 <0>         0.0742
     23 H4         -1.4500   -0.1885    1.5692 H         1 <0>         0.1349
     24 H5          1.7269   -0.1396   -1.2779 H         1 <0>         0.1357
     25 H6          1.3004   -2.7877   -2.8476 H         1 <0>         0.0819
     26 H7          2.7201   -2.2632   -1.9108 H         1 <0>         0.0826
     27 H8          1.9107   -3.7983   -1.5155 H         1 <0>         0.0612
     28 H9         -0.6094   -7.7472   -1.5729 H         1 <0>         0.2083
     29 H10        -1.1039   -7.1152    2.1198 H         1 <0>         0.1454
     30 H11        -1.0815   -8.3693    0.8569 H         1 <0>         0.1446
     31 H12         1.3003   -8.2561    0.8800 H         1 <0>         0.4257
     32 H13         0.1046   -9.7690    2.3358 H         1 <0>         0.1401
     33 H14         2.7091   -8.6084    3.4252 H         1 <0>         0.0813
     34 H15         2.0423  -10.2112    3.8185 H         1 <0>         0.1077
     35 H16         2.5765   -9.8523    2.1589 H         1 <0>         0.0814
     36 H17         0.6484   -7.5278    4.3353 H         1 <0>         0.0824
     37 H18        -0.9522   -8.0019    3.7175 H         1 <0>         0.0817
     38 H19        -0.0184   -9.1306    4.7287 H         1 <0>         0.1065
     39 H20        -2.8918   -2.9361    0.8799 H         1 <0>         0.0724
     40 H21        -1.6133   -3.8186    1.7486 H         1 <0>         0.0828
     41 H22        -2.2347   -2.2830    2.3997 H         1 <0>         0.0745
     42 H23         1.2796   -7.0952    2.0491 H         1 <0>         0.4292
@<TRIPOS>BOND
     1    1    2 1
     2    1   20 1
     3    1   21 1
     4    1   22 1
     5    2    7 ar
     6    2    3 ar
     7    3    4 ar
     8    3   23 1
     9    4    5 ar
    10    4   19 1
    11    5    6 ar
    12    5    9 1
    13    6    7 ar
    14    6    8 1
    15    7   24 1
    16    8   25 1
    17    8   26 1
    18    8   27 1
    19    9   13 1
    20    9   10 2
    21   10   11 1
    22   11   12 2
    23   11   14 1
    24   12   13 1
    25   12   28 1
    26   14   15 1
    27   14   29 1
    28   14   30 1
    29   15   16 1
    30   15   31 1
    31   15   42 1
    32   16   17 1
    33   16   18 1
    34   16   32 1
    35   17   33 1
    36   17   34 1
    37   17   35 1
    38   18   36 1
    39   18   37 1
    40   18   38 1
    41   19   39 1
    42   19   40 1
    43   19   41 1
